data/public_benchmarks/arpae_go/extracted/Challenge_1_Original_Dataset_2_Scenarios/Original_Dataset_Real-Time_Edition_2/Network_05R-010/scenario_9/case.raw
 0,    100, 33, 0, 0, 60.0 / Header line 1
Header line 2
Header line 3
  1001,'',   115, 1, 1, 1, 1, 1.0062477, -39.21979, 1.1, 0.9, 1.1, 0.9
  1002,'',   115, 1, 1, 1, 1, 1.0477303, -42.172348, 1.1, 0.9, 1.1, 0.9
  1003,'',   115, 1, 1, 1, 1, 1.0166483, -35.253785, 1.1, 0.9, 1.1, 0.9
  1004,'',   230, 2, 1, 1, 1, 1.018668, -34.663512, 1.1, 0.9, 1.1, 0.9
  1005,'',   115, 1, 1, 1, 1, 1.0095884, -24.280191, 1.1, 0.9, 1.1, 0.9
  1006,'',  13.8, 2, 1, 1, 1, 1.0031228, -22.54076, 1.1, 0.9, 1.1, 0.9
  1007,'',   115, 1, 1, 1, 1, 1.0500636, -41.747416, 1.1, 0.9, 1.1, 0.9
  1008,'',   115, 1, 1, 1, 1, 1.0194807, -33.484508, 1.1, 0.9, 1.1, 0.9
  1009,'',  13.8, 2, 1, 1, 1, 1.0085732, -33.30167, 1.1, 0.9, 1.1, 0.9
  1010,'',   115, 1, 1, 1, 1, 1.0504168, -41.494008, 1.1, 0.9, 1.1, 0.9
  1011,'',    22, 2, 1, 1, 1, 1.0504168, -41.494008, 1.1, 0.9, 1.1, 0.9
  1012,'',   115, 1, 1, 1, 1, 1.0213907, -40.311453, 1.1, 0.9, 1.1, 0.9
  1013,'',   115, 1, 1, 1, 1, 1.0123933, -37.916419, 1.1, 0.9, 1.1, 0.9
  1014,'',   115, 1, 1, 1, 1, 1.0136663, -36.266163, 1.1, 0.9, 1.1, 0.9
  1015,'',   115, 1, 1, 1, 1, 1.0541924, -42.08571, 1.1, 0.9, 1.1, 0.9
  1016,'',   115, 1, 1, 1, 1, 1.015, -26.635352, 1.1, 0.9, 1.1, 0.9
  1017,'',   115, 1, 1, 1, 1, 1.0037899, -38.742926, 1.1, 0.9, 1.1, 0.9
  1018,'',   115, 1, 1, 1, 1, 1.0072485, -37.561972, 1.1, 0.9, 1.1, 0.9
  1019,'',   115, 1, 1, 1, 1, 1.015, -38.467286, 1.1, 0.9, 1.1, 0.9
  1020,'',   115, 1, 1, 1, 1, 1.0156693, -26.055785, 1.1, 0.9, 1.1, 0.9
  1021,'',  13.8, 2, 1, 1, 1, 1, -20.242419, 1.1, 0.9, 1.1, 0.9
  1022,'',   115, 1, 1, 1, 1, 1.0177815, -35.092198, 1.1, 0.9, 1.1, 0.9
  1023,'',  13.8, 2, 1, 1, 1, 1.01, -34.711849, 1.1, 0.9, 1.1, 0.9
  1024,'',   115, 1, 1, 1, 1, 1.0059773, -36.619634, 1.1, 0.9, 1.1, 0.9
  1025,'',   115, 1, 1, 1, 1, 1.0183478, -24.252259, 1.1, 0.9, 1.1, 0.9
  1026,'',  13.8, 2, 1, 1, 1, 1.03, -14.873746, 1.1, 0.9, 1.1, 0.9
  1027,'',   115, 1, 1, 1, 1, 1, -39.169683, 1.1, 0.9, 1.1, 0.9
  1028,'',   115, 1, 1, 1, 1, 1.021708, -34.877688, 1.1, 0.9, 1.1, 0.9
  1029,'',   115, 1, 1, 1, 1, 1.015, -39.157537, 1.1, 0.9, 1.1, 0.9
  1030,'',   115, 1, 1, 1, 1, 1.02598, -38.689592, 1.1, 0.9, 1.1, 0.9
  1031,'',   115, 1, 1, 1, 1, 1.0322514, -40.349701, 1.1, 0.9, 1.1, 0.9
  1032,'',   115, 1, 1, 1, 1, 1.0069028, -35.028782, 1.1, 0.9, 1.1, 0.9
  1033,'',   230, 2, 1, 1, 1, 1.0111337, -37.609204, 1.1, 0.9, 1.1, 0.9
  1034,'',   115, 1, 1, 1, 1, 1.0063651, -23.95761, 1.1, 0.9, 1.1, 0.9
  1035,'',  13.8, 2, 1, 1, 1, 1, -20.440643, 1.1, 0.9, 1.1, 0.9
  1036,'',   115, 1, 1, 1, 1, 1.000669, -32.733736, 1.1, 0.9, 1.1, 0.9
  1037,'',   115, 1, 1, 1, 1, 1.0013842, -39.380226, 1.1, 0.9, 1.1, 0.9
  1038,'',   115, 1, 1, 1, 1, 1.0120929, -34.45426, 1.1, 0.9, 1.1, 0.9
  1039,'',    22, 2, 1, 1, 1, 1, -33.825179, 1.1, 0.9, 1.1, 0.9
  1040,'',   115, 1, 1, 1, 1, 1.0068636, -37.23917, 1.1, 0.9, 1.1, 0.9
  1041,'',   115, 1, 1, 1, 1, 1.0063004, -24.653638, 1.1, 0.9, 1.1, 0.9
  1042,'',  13.8, 2, 1, 1, 1, 1.0063004, -24.653638, 1.1, 0.9, 1.1, 0.9
  1043,'',  13.8, 2, 1, 1, 1, 1.0213008, -20.726083, 1.1, 0.9, 1.1, 0.9
  1044,'',   115, 1, 1, 1, 1, 1.0158131, -35.350513, 1.1, 0.9, 1.1, 0.9
  1045,'',   115, 1, 1, 1, 1, 0.99855892, -39.764821, 1.1, 0.9, 1.1, 0.9
  1046,'',   115, 1, 1, 1, 1, 1.0241301, -38.340739, 1.1, 0.9, 1.1, 0.9
  1047,'',   115, 1, 1, 1, 1, 1.0097998, -36.467617, 1.1, 0.9, 1.1, 0.9
  1048,'',    18, 2, 1, 1, 1, 1.0097998, -36.467617, 1.1, 0.9, 1.1, 0.9
  1049,'',    18, 2, 1, 1, 1, 1.0097998, -36.467617, 1.1, 0.9, 1.1, 0.9
  1050,'',    18, 2, 1, 1, 1, 1.0004735, -34.911148, 1.1, 0.9, 1.1, 0.9
  1051,'',    18, 2, 1, 1, 1, 1, -34.45381, 1.1, 0.9, 1.1, 0.9
  1052,'',    18, 2, 1, 1, 1, 1.0024117, -35.170867, 1.1, 0.9, 1.1, 0.9
  1053,'',   230, 2, 1, 1, 1, 1.0167091, -37.118068, 1.1, 0.9, 1.1, 0.9
  1054,'',   115, 1, 1, 1, 1, 1.0078731, -36.363593, 1.1, 0.9, 1.1, 0.9
  1055,'',   115, 1, 1, 1, 1, 1.0114769, -35.731106, 1.1, 0.9, 1.1, 0.9
  1056,'',   115, 1, 1, 1, 1, 1.015, -35.459645, 1.1, 0.9, 1.1, 0.9
  1057,'',    18, 2, 1, 1, 1, 1.015, -35.459645, 1.1, 0.9, 1.1, 0.9
  1058,'',   115, 1, 1, 1, 1, 1.0256247, -34.149836, 1.1, 0.9, 1.1, 0.9
  1059,'',    22, 2, 1, 1, 1, 1.0256247, -34.149836, 1.1, 0.9, 1.1, 0.9
  1060,'',    22, 2, 1, 1, 1, 1.0256247, -34.149836, 1.1, 0.9, 1.1, 0.9
  1061,'',   115, 1, 1, 1, 1, 1.0123011, -33.859695, 1.1, 0.9, 1.1, 0.9
  1062,'',  13.8, 2, 1, 1, 1, 1.0123011, -33.859695, 1.1, 0.9, 1.1, 0.9
  1063,'',  13.8, 2, 1, 1, 1, 1.0123011, -33.859695, 1.1, 0.9, 1.1, 0.9
  1064,'',   115, 1, 1, 1, 1, 0.99933817, -39.967356, 1.1, 0.9, 1.1, 0.9
  1065,'',   115, 1, 1, 1, 1, 1.0058138, -25.144049, 1.1, 0.9, 1.1, 0.9
  1066,'',  13.8, 2, 1, 1, 1, 1, -18.117465, 1.1, 0.9, 1.1, 0.9
  1067,'',   115, 1, 1, 1, 1, 1.0033925, -24.784807, 1.1, 0.9, 1.1, 0.9
  1068,'',   115, 1, 1, 1, 1, 0.99324665, -30.003036, 1.1, 0.9, 1.1, 0.9
  1069,'',   115, 1, 1, 1, 1, 1.0257471, -33.086296, 1.1, 0.9, 1.1, 0.9
  1070,'',  13.8, 2, 1, 1, 1, 1.04, -29.589533, 1.1, 0.9, 1.1, 0.9
  1071,'',   115, 1, 1, 1, 1, 1.0126207, -38.532544, 1.1, 0.9, 1.1, 0.9
  1072,'',    18, 2, 1, 1, 1, 1.01, -35.70586, 1.1, 0.9, 1.1, 0.9
  1073,'',    18, 2, 1, 1, 1, 1.01, -33.83912, 1.1, 0.9, 1.1, 0.9
  1074,'',    18, 2, 1, 1, 1, 1.01, -34.4281, 1.1, 0.9, 1.1, 0.9
  1075,'',    18, 2, 1, 1, 1, 1.01, -35.2489, 1.1, 0.9, 1.1, 0.9
  1076,'',    18, 2, 1, 1, 1, 1.0126207, -38.532544, 1.1, 0.9, 1.1, 0.9
  1077,'',    18, 2, 1, 1, 1, 1.0126207, -38.532544, 1.1, 0.9, 1.1, 0.9
  1078,'',    18, 2, 1, 1, 1, 1.01, -35.409235, 1.1, 0.9, 1.1, 0.9
  1079,'',   500, 2, 1, 1, 1, 1.0516278, -42.047647, 1.1, 0.9, 1.1, 0.9
  1080,'',    18, 2, 1, 1, 1, 1.01, -35.21515, 1.1, 0.9, 1.1, 0.9
  1081,'',   230, 2, 1, 1, 1, 1.0178936, -37.342992, 1.1, 0.9, 1.1, 0.9
  1082,'',   115, 2, 1, 1, 1, 1.0145437, -32.73741, 1.1, 0.9, 1.1, 0.9
  1083,'',   115, 1, 1, 1, 1, 1.015, -35.80685, 1.1, 0.9, 1.1, 0.9
  1084,'',   115, 2, 1, 1, 1, 1.0240851, -27.963594, 1.1, 0.9, 1.1, 0.9
  1085,'',   115, 1, 1, 1, 1, 1.0125143, -36.684435, 1.1, 0.9, 1.1, 0.9
  1086,'',   115, 1, 1, 1, 1, 1.015, -38.656227, 1.1, 0.9, 1.1, 0.9
  1087,'',   115, 1, 1, 1, 1, 1.0270043, -36.128452, 1.1, 0.9, 1.1, 0.9
  1088,'',   115, 2, 1, 1, 1, 1, -29.780587, 1.1, 0.9, 1.1, 0.9
  1089,'',   115, 1, 1, 1, 1, 0.99643667, -37.101528, 1.1, 0.9, 1.1, 0.9
  1090,'',   115, 2, 1, 1, 1, 1.02, -34.26313, 1.1, 0.9, 1.1, 0.9
  1091,'',   161, 1, 1, 1, 1, 1.02772, -39.394143, 1.1, 0.9, 1.1, 0.9
  2001,'',   161, 1, 1, 1, 1, 1.029135, -55.236657, 1.1, 0.9, 1.1, 0.9
  2002,'',   500, 1, 1, 1, 1, 1.0305009, -55.226715, 1.1, 0.9, 1.1, 0.9
  2003,'',   161, 1, 1, 1, 1, 1.0265738, -56.262559, 1.1, 0.9, 1.1, 0.9
  2004,'',  13.8, 2, 1, 1, 1, 1.0305009, -55.226715, 1.1, 0.9, 1.1, 0.9
  2005,'',  13.8, 2, 1, 1, 1, 1.0305009, -55.226715, 1.1, 0.9, 1.1, 0.9
  2006,'',  13.8, 2, 1, 1, 1, 1.0305009, -55.226715, 1.1, 0.9, 1.1, 0.9
  2007,'',   161, 1, 1, 1, 1, 1.0277152, -55.043989, 1.1, 0.9, 1.1, 0.9
  2008,'',   161, 1, 1, 1, 1, 1.0330244, -40.509039, 1.1, 0.9, 1.1, 0.9
  2009,'',   161, 1, 1, 1, 1, 1.0220237, -45.666818, 1.1, 0.9, 1.1, 0.9
  2010,'',   161, 1, 1, 1, 1, 1.0266963, -41.198143, 1.1, 0.9, 1.1, 0.9
  2011,'',   500, 1, 1, 1, 1, 1.0400941, -39.983735, 1.1, 0.9, 1.1, 0.9
  2012,'',   161, 1, 1, 1, 1, 1.032001, -38.981614, 1.1, 0.9, 1.1, 0.9
  2013,'',    18, 2, 1, 1, 1, 1.0321013, -39.117366, 1.1, 0.9, 1.1, 0.9
  2014,'',   161, 1, 1, 1, 1, 1.0325972, -40.777251, 1.1, 0.9, 1.1, 0.9
  2015,'',   161, 1, 1, 1, 1, 1.0174286, -51.341856, 1.1, 0.9, 1.1, 0.9
  2016,'',   161, 1, 1, 1, 1, 1.0098791, -58.817753, 1.1, 0.9, 1.1, 0.9
  2017,'',   500, 1, 1, 1, 1, 1.0248179, -40.077046, 1.1, 0.9, 1.1, 0.9
  2018,'',   161, 1, 1, 1, 1, 1.0270201, -39.691897, 1.1, 0.9, 1.1, 0.9
  2019,'',    20, 2, 1, 1, 1, 1.0248179, -40.077046, 1.1, 0.9, 1.1, 0.9
  2020,'',   161, 1, 1, 1, 1, 1.0264453, -45.861195, 1.1, 0.9, 1.1, 0.9
  2021,'',   500, 1, 1, 1, 1, 1.0309993, -53.748928, 1.1, 0.9, 1.1, 0.9
  2022,'',   161, 1, 1, 1, 1, 1.0315165, -54.596599, 1.1, 0.9, 1.1, 0.9
  2023,'',  13.8, 2, 1, 1, 1, 1.0280334, -53.277797, 1.1, 0.9, 1.1, 0.9
  2024,'',  13.8, 2, 1, 1, 1, 1.0267374, -53.077447, 1.1, 0.9, 1.1, 0.9
  2025,'',   161, 1, 1, 1, 1, 1.0259259, -45.472096, 1.1, 0.9, 1.1, 0.9
  2026,'',   161, 1, 1, 1, 1, 1.032769, -39.560935, 1.1, 0.9, 1.1, 0.9
  2027,'',   161, 1, 1, 1, 1, 1.0307804, -55.422573, 1.1, 0.9, 1.1, 0.9
  2028,'',   161, 1, 1, 1, 1, 1.0232369, -46.652503, 1.1, 0.9, 1.1, 0.9
  2029,'',   161, 1, 1, 1, 1, 1.0339274, -40.428809, 1.1, 0.9, 1.1, 0.9
  2030,'',   161, 1, 1, 1, 1, 1.0202178, -56.664769, 1.1, 0.9, 1.1, 0.9
  2031,'',   161, 1, 1, 1, 1, 1.0352836, -37.790337, 1.1, 0.9, 1.1, 0.9
  2032,'',   161, 1, 1, 1, 1, 1.0286567, -54.801503, 1.1, 0.9, 1.1, 0.9
  2033,'',   161, 1, 1, 1, 1, 1.0207542, -57.126029, 1.1, 0.9, 1.1, 0.9
  2034,'',   161, 1, 1, 1, 1, 1.011136, -58.61818, 1.1, 0.9, 1.1, 0.9
  2035,'',   161, 1, 1, 1, 1, 1.0339918, -37.847276, 1.1, 0.9, 1.1, 0.9
  2036,'',   161, 1, 1, 1, 1, 1.0256066, -45.64494, 1.1, 0.9, 1.1, 0.9
  2037,'',   161, 1, 1, 1, 1, 1.0190939, -50.930418, 1.1, 0.9, 1.1, 0.9
  2038,'',   161, 1, 1, 1, 1, 1.0256096, -56.472793, 1.1, 0.9, 1.1, 0.9
  2039,'',   161, 1, 1, 1, 1, 1.0177196, -51.551056, 1.1, 0.9, 1.1, 0.9
  2040,'',   161, 1, 1, 1, 1, 1.0325612, -54.94712, 1.1, 0.9, 1.1, 0.9
  2041,'',   161, 1, 1, 1, 1, 1.0294726, -38.112289, 1.1, 0.9, 1.1, 0.9
  2042,'',    18, 2, 1, 1, 1, 1.0209863, -37.239113, 1.1, 0.9, 1.1, 0.9
  2043,'',   161, 1, 1, 1, 1, 1.0106014, -58.715178, 1.1, 0.9, 1.1, 0.9
  2044,'',   161, 1, 1, 1, 1, 1.0128063, -57.754823, 1.1, 0.9, 1.1, 0.9
  2045,'',   161, 1, 1, 1, 1, 1.0255616, -46.049167, 1.1, 0.9, 1.1, 0.9
  2046,'',   161, 1, 1, 1, 1, 1.0117956, -58.483642, 1.1, 0.9, 1.1, 0.9
  2047,'',   161, 1, 1, 1, 1, 1.0239577, -56.669149, 1.1, 0.9, 1.1, 0.9
  2048,'',   161, 1, 1, 1, 1, 1.0335334, -39.24366, 1.1, 0.9, 1.1, 0.9
  2049,'',   161, 1, 1, 1, 1, 1.0225653, -43.555108, 1.1, 0.9, 1.1, 0.9
  2050,'',   161, 1, 1, 1, 1, 1.0281146, -56.485522, 1.1, 0.9, 1.1, 0.9
  2051,'',   161, 1, 1, 1, 1, 1.0205205, -48.958179, 1.1, 0.9, 1.1, 0.9
  2052,'',   161, 1, 1, 1, 1, 1.0314894, -40.067793, 1.1, 0.9, 1.1, 0.9
  2053,'',   161, 1, 1, 1, 1, 1.0193734, -52.094655, 1.1, 0.9, 1.1, 0.9
  2054,'',   500, 1, 1, 1, 1, 1.0306448, -45.222907, 1.1, 0.9, 1.1, 0.9
  2055,'',   161, 1, 1, 1, 1, 1.0282089, -45.510093, 1.1, 0.9, 1.1, 0.9
  2056,'',    18, 2, 1, 1, 1, 1.0306448, -45.222907, 1.1, 0.9, 1.1, 0.9
  2057,'',    18, 2, 1, 1, 1, 1.0197028, -43.627988, 1.1, 0.9, 1.1, 0.9
  2058,'',   161, 1, 1, 1, 1, 1.0292031, -37.854217, 1.1, 0.9, 1.1, 0.9
  2059,'',  13.8, 2, 1, 1, 1, 1.0181217, -37.456457, 1.1, 0.9, 1.1, 0.9
  2060,'',   161, 1, 1, 1, 1, 1.0270857, -55.908846, 1.1, 0.9, 1.1, 0.9
  2061,'',   161, 1, 1, 1, 1, 1.0236616, -41.802012, 1.1, 0.9, 1.1, 0.9
  2062,'',    18, 2, 1, 1, 1, 1.02, -40.705245, 1.1, 0.9, 1.1, 0.9
  2063,'',   161, 1, 1, 1, 1, 1.0131862, -58.219391, 1.1, 0.9, 1.1, 0.9
  2064,'',   161, 1, 1, 1, 1, 1.0292479, -55.258849, 1.1, 0.9, 1.1, 0.9
  2065,'',   161, 1, 1, 1, 1, 1.0056993, -58.479899, 1.1, 0.9, 1.1, 0.9
  2066,'',   161, 1, 1, 1, 1, 1.0333432, -36.187839, 1.1, 0.9, 1.1, 0.9
  2067,'',   161, 1, 1, 1, 1, 1.0241187, -45.273371, 1.1, 0.9, 1.1, 0.9
  2068,'',   161, 1, 1, 1, 1, 1.0224316, -43.624334, 1.1, 0.9, 1.1, 0.9
  2069,'',   161, 1, 1, 1, 1, 1.015, -58.267216, 1.1, 0.9, 1.1, 0.9
  2070,'',   161, 1, 1, 1, 1, 1.0228992, -43.0805, 1.1, 0.9, 1.1, 0.9
  2071,'',    18, 2, 1, 1, 1, 1.0101799, -39.299355, 1.1, 0.9, 1.1, 0.9
  2072,'',   161, 1, 1, 1, 1, 1.0193588, -57.511152, 1.1, 0.9, 1.1, 0.9
  2073,'',   161, 1, 1, 1, 1, 1.03211, -34.765866, 1.1, 0.9, 1.1, 0.9
  2074,'',   115, 1, 1, 1, 1, 1.0222349, -33.591316, 1.1, 0.9, 1.1, 0.9
  2075,'',   115, 1, 1, 1, 1, 1.0222349, -33.591316, 1.1, 0.9, 1.1, 0.9
  2076,'',    24, 2, 1, 1, 1, 1.0369861, -34.366353, 1.1, 0.9, 1.1, 0.9
  2077,'',   161, 1, 1, 1, 1, 1.0200998, -50.534314, 1.1, 0.9, 1.1, 0.9
  2078,'',  13.8, 2, 1, 1, 1, 1.02, -49.82217, 1.1, 0.9, 1.1, 0.9
  2079,'',   161, 1, 1, 1, 1, 1.0315872, -40.487791, 1.1, 0.9, 1.1, 0.9
  2080,'',   161, 1, 1, 1, 1, 1.0201662, -50.018026, 1.1, 0.9, 1.1, 0.9
  2081,'',   161, 1, 1, 1, 1, 1.0235583, -56.823821, 1.1, 0.9, 1.1, 0.9
  2082,'',   161, 1, 1, 1, 1, 1.0238032, -45.682962, 1.1, 0.9, 1.1, 0.9
  2083,'',    20, 2, 1, 1, 1, 1.0212457, -44.109877, 1.1, 0.9, 1.1, 0.9
  2084,'',    20, 2, 1, 1, 1, 1.0238032, -45.682962, 1.1, 0.9, 1.1, 0.9
  2085,'',    20, 2, 1, 1, 1, 1.0238032, -45.682962, 1.1, 0.9, 1.1, 0.9
  2086,'',   161, 1, 1, 1, 1, 1.018972, -50.976548, 1.1, 0.9, 1.1, 0.9
  2087,'',   161, 1, 1, 1, 1, 1.034425, -36.32024, 1.1, 0.9, 1.1, 0.9
  2088,'',   161, 1, 1, 1, 1, 1.0222382, -43.386534, 1.1, 0.9, 1.1, 0.9
  2089,'',    24, 2, 1, 1, 1, 1.0106895, -42.506427, 1.1, 0.9, 1.1, 0.9
  2090,'',   161, 1, 1, 1, 1, 1.0324196, -55.665687, 1.1, 0.9, 1.1, 0.9
  2091,'',   161, 1, 1, 1, 1, 1.0315189, -39.784435, 1.1, 0.9, 1.1, 0.9
  2092,'',   161, 1, 1, 1, 1, 1.0182065, -57.483358, 1.1, 0.9, 1.1, 0.9
  2093,'',   161, 1, 1, 1, 1, 1.0302003, -39.321287, 1.1, 0.9, 1.1, 0.9
  2094,'',  13.8, 2, 1, 1, 1, 1.0302003, -39.321287, 1.1, 0.9, 1.1, 0.9
  2095,'',  13.8, 2, 1, 1, 1, 1.0302003, -39.321287, 1.1, 0.9, 1.1, 0.9
  2096,'',   500, 1, 1, 1, 1, 1, -38.454339, 1.1, 0.9, 1.1, 0.9
  2097,'',   230, 1, 1, 1, 1, 1.0036574, -38.115394, 1.1, 0.9, 1.1, 0.9
  2098,'',   161, 1, 1, 1, 1, 1.0246697, -39.161593, 1.1, 0.9, 1.1, 0.9
  2099,'',    18, 2, 1, 1, 1, 1.0007409, -38.448732, 1.1, 0.9, 1.1, 0.9
  2100,'',    18, 2, 1, 1, 1, 1.0133867, -38.35056, 1.1, 0.9, 1.1, 0.9
  2101,'',   500, 1, 1, 1, 1, 1.029498, -55.493903, 1.1, 0.9, 1.1, 0.9
  2102,'',   161, 1, 1, 1, 1, 1.0263787, -56.246464, 1.1, 0.9, 1.1, 0.9
  2103,'',    20, 2, 1, 1, 1, 1.029498, -55.493903, 1.1, 0.9, 1.1, 0.9
  2104,'',    20, 2, 1, 1, 1, 1.029498, -55.493903, 1.1, 0.9, 1.1, 0.9
  2105,'',    20, 2, 1, 1, 1, 1.029498, -55.493903, 1.1, 0.9, 1.1, 0.9
  2106,'',   161, 1, 1, 1, 1, 1.0183868, -57.312399, 1.1, 0.9, 1.1, 0.9
  2107,'',   161, 1, 1, 1, 1, 1.0237106, -56.597819, 1.1, 0.9, 1.1, 0.9
  2108,'',   161, 1, 1, 1, 1, 1.033294, -44.867602, 1.1, 0.9, 1.1, 0.9
  2109,'',   161, 1, 1, 1, 1, 1.0211811, -46.234783, 1.1, 0.9, 1.1, 0.9
...
0 / END OF BUS DATA, BEGIN LOAD DATA
1001, '1', 1, 1, 1, 14.447, 4.093, 0, 0, 0, 0, 1, 1, 0
1002, '1', 1, 1, 1, 10.716, 3.036, 0, 0, 0, 0, 1, 1, 0
1007, '1', 1, 1, 1, 4.872, 1.38, 0, 0, 0, 0, 1, 1, 0
1012, '1', 1, 1, 1, 2.075, 0.588, 0, 0, 0, 0, 1, 1, 0
1013, '1', 1, 1, 1, 20.318, 5.756, 0, 0, 0, 0, 1, 1, 0
1014, '1', 1, 1, 1, 1.543, 0.437, 0, 0, 0, 0, 1, 1, 0
1015, '1', 1, 1, 1, 5.22, 1.479, 0, 0, 0, 0, 1, 1, 0
1016, '1', 1, 1, 1, 2.008, 0.569, 0, 0, 0, 0, 1, 1, 0
1017, '1', 1, 1, 1, 12.753, 3.613, 0, 0, 0, 0, 1, 1, 0
1018, '1', 1, 1, 1, 0.048, 0.014, 0, 0, 0, 0, 1, 1, 0
1019, '1', 1, 1, 1, 42.946, 12.168, 0, 0, 0, 0, 1, 1, 0
1024, '1', 1, 1, 1, 43.824, 12.417, 0, 0, 0, 0, 1, 1, 0
1027, '1', 1, 1, 1, 70.36, 19.936, 0, 0, 0, 0, 1, 1, 0
1028, '1', 1, 1, 1, 6.962, 1.973, 0, 0, 0, 0, 1, 1, 0
1029, '1', 1, 1, 1, 57.828, 16.385, 0, 0, 0, 0, 1, 1, 0
1030, '1', 1, 1, 1, 17.12, 4.85, 0, 0, 0, 0, 1, 1, 0
1031, '1', 1, 1, 1, 6.428, 1.821, 0, 0, 0, 0, 1, 1, 0
1036, '1', 1, 1, 1, 9.452, 2.678, 0, 0, 0, 0, 1, 1, 0
1037, '1', 1, 1, 1, 71.074, 20.138, 0, 0, 0, 0, 1, 1, 0
1040, '1', 1, 1, 1, 30.837, 8.737, 0, 0, 0, 0, 1, 1, 0
1044, '1', 1, 1, 1, 10.207, 2.892, 0, 0, 0, 0, 1, 1, 0
1045, '1', 1, 1, 1, 68.519, 19.414, 0, 0, 0, 0, 1, 1, 0
1046, '1', 1, 1, 1, 7.706, 2.183, 0, 0, 0, 0, 1, 1, 0
1054, '1', 1, 1, 1, 10.42, 2.952, 0, 0, 0, 0, 1, 1, 0
1055, '1', 1, 1, 1, 2.765, 0.784, 0, 0, 0, 0, 1, 1, 0
1058, '1', 1, 1, 1, 9.354, 2.65, 0, 0, 0, 0, 1, 1, 0
1064, '1', 1, 1, 1, 86.036, 24.377, 0, 0, 0, 0, 1, 1, 0
1067, '1', 1, 1, 1, 70.596, 20.002, 0, 0, 0, 0, 1, 1, 0
1068, '1', 1, 1, 1, 41.297, 11.701, 0, 0, 0, 0, 1, 1, 0
1071, '1', 1, 1, 1, 63.585, 18.016, 0, 0, 0, 0, 1, 1, 0
1083, '1', 1, 1, 1, 27.769, 7.868, 0, 0, 0, 0, 1, 1, 0
1085, '1', 1, 1, 1, 14.805, 4.195, 0, 0, 0, 0, 1, 1, 0
1086, '1', 1, 1, 1, 27.579, 7.814, 0, 0, 0, 0, 1, 1, 0
1087, '1', 1, 1, 1, 0.632, 0.179, 0, 0, 0, 0, 1, 1, 0
1089, '1', 1, 1, 1, 28.228, 7.998, 0, 0, 0, 0, 1, 1, 0
1091, '1', 1, 1, 1, 8.079, 2.289, 0, 0, 0, 0, 1, 1, 0
2001, '1', 1, 1, 1, 24.793, 7.024, 0, 0, 0, 0, 1, 1, 0
2007, '1', 1, 1, 1, 4.891, 1.386, 0, 0, 0, 0, 1, 1, 0
2008, '1', 1, 1, 1, 4.133, 1.171, 0, 0, 0, 0, 1, 1, 0
2009, '1', 1, 1, 1, 20.065, 5.685, 0, 0, 0, 0, 1, 1, 0
2010, '1', 1, 1, 1, 29.124, 8.251, 0, 0, 0, 0, 1, 1, 0
2014, '1', 1, 1, 1, 13.037, 3.693, 0, 0, 0, 0, 1, 1, 0
2015, '1', 1, 1, 1, 2.403, 0.681, 0, 0, 0, 0, 1, 1, 0
2016, '1', 1, 1, 1, 35.514, 10.062, 0, 0, 0, 0, 1, 1, 0
2020, '1', 1, 1, 1, 24.596, 6.969, 0, 0, 0, 0, 1, 1, 0
2022, '1', 1, 1, 1, 5.929, 1.68, 0, 0, 0, 0, 1, 1, 0
2025, '1', 1, 1, 1, 20.312, 5.755, 0, 0, 0, 0, 1, 1, 0
2026, '1', 1, 1, 1, 9.521, 2.698, 0, 0, 0, 0, 1, 1, 0
2027, '1', 1, 1, 1, 1.823, 0.516, 0, 0, 0, 0, 1, 1, 0
2028, '1', 1, 1, 1, 7.3, 2.068, 0, 0, 0, 0, 1, 1, 0
2029, '1', 1, 1, 1, 1.641, 0.465, 0, 0, 0, 0, 1, 1, 0
2030, '1', 1, 1, 1, 24.172, 6.848, 0, 0, 0, 0, 1, 1, 0
2031, '1', 1, 1, 1, 2.956, 0.838, 0, 0, 0, 0, 1, 1, 0
2032, '1', 1, 1, 1, 1.72, 0.487, 0, 0, 0, 0, 1, 1, 0
2033, '1', 1, 1, 1, 6.959, 1.971, 0, 0, 0, 0, 1, 1, 0
2034, '1', 1, 1, 1, 2.738, 0.776, 0, 0, 0, 0, 1, 1, 0
2035, '1', 1, 1, 1, 2.401, 0.681, 0, 0, 0, 0, 1, 1, 0
2036, '1', 1, 1, 1, 21.321, 6.041, 0, 0, 0, 0, 1, 1, 0
2037, '1', 1, 1, 1, 1.795, 0.508, 0, 0, 0, 0, 1, 1, 0
2038, '1', 1, 1, 1, 1.335, 0.378, 0, 0, 0, 0, 1, 1, 0
2039, '1', 1, 1, 1, 2.85, 0.808, 0, 0, 0, 0, 1, 1, 0
2040, '1', 1, 1, 1, 8.154, 2.31, 0, 0, 0, 0, 1, 1, 0
2043, '1', 1, 1, 1, 2.172, 0.615, 0, 0, 0, 0, 1, 1, 0
2044, '1', 1, 1, 1, 14.051, 3.981, 0, 0, 0, 0, 1, 1, 0
2045, '1', 1, 1, 1, 11.59, 3.284, 0, 0, 0, 0, 1, 1, 0
2046, '1', 1, 1, 1, 11.348, 3.215, 0, 0, 0, 0, 1, 1, 0
2047, '1', 1, 1, 1, 7.668, 2.173, 0, 0, 0, 0, 1, 1, 0
2048, '1', 1, 1, 1, 3.29, 0.932, 0, 0, 0, 0, 1, 1, 0
2049, '1', 1, 1, 1, 5.933, 1.681, 0, 0, 0, 0, 1, 1, 0
2050, '1', 1, 1, 1, 1.875, 0.531, 0, 0, 0, 0, 1, 1, 0
2051, '1', 1, 1, 1, 9.152, 2.593, 0, 0, 0, 0, 1, 1, 0
2052, '1', 1, 1, 1, 12.734, 3.608, 0, 0, 0, 0, 1, 1, 0
2053, '1', 1, 1, 1, 14.937, 4.232, 0, 0, 0, 0, 1, 1, 0
2055, '1', 1, 1, 1, 25.441, 7.208, 0, 0, 0, 0, 1, 1, 0
2060, '1', 1, 1, 1, 1.946, 0.551, 0, 0, 0, 0, 1, 1, 0
2063, '1', 1, 1, 1, 33.642, 9.532, 0, 0, 0, 0, 1, 1, 0
2064, '1', 1, 1, 1, 5.151, 1.459, 0, 0, 0, 0, 1, 1, 0
2065, '1', 1, 1, 1, 40.176, 11.383, 0, 0, 0, 0, 1, 1, 0
2066, '1', 1, 1, 1, 3.647, 1.033, 0, 0, 0, 0, 1, 1, 0
2067, '1', 1, 1, 1, 27.669, 7.84, 0, 0, 0, 0, 1, 1, 0
2068, '1', 1, 1, 1, 2.953, 0.837, 0, 0, 0, 0, 1, 1, 0
2069, '1', 1, 1, 1, 11.241, 3.185, 0, 0, 0, 0, 1, 1, 0
2072, '1', 1, 1, 1, 4.976, 1.41, 0, 0, 0, 0, 1, 1, 0
2079, '1', 1, 1, 1, 2.296, 0.651, 0, 0, 0, 0, 1, 1, 0
2080, '1', 1, 1, 1, 8.681, 2.46, 0, 0, 0, 0, 1, 1, 0
2081, '1', 1, 1, 1, 2.289, 0.648, 0, 0, 0, 0, 1, 1, 0
2082, '1', 1, 1, 1, 30.266, 8.575, 0, 0, 0, 0, 1, 1, 0
2086, '1', 1, 1, 1, 1.124, 0.319, 0, 0, 0, 0, 1, 1, 0
2087, '1', 1, 1, 1, 4.048, 1.147, 0, 0, 0, 0, 1, 1, 0
2090, '1', 1, 1, 1, 1.243, 0.352, 0, 0, 0, 0, 1, 1, 0
2091, '1', 1, 1, 1, 8.74, 2.476, 0, 0, 0, 0, 1, 1, 0
2092, '1', 1, 1, 1, 12.36, 3.502, 0, 0, 0, 0, 1, 1, 0
2106, '1', 1, 1, 1, 7.385, 2.092, 0, 0, 0, 0, 1, 1, 0
2107, '1', 1, 1, 1, 38.018, 10.772, 0, 0, 0, 0, 1, 1, 0
2108, '1', 1, 1, 1, 1.1, 0.312, 0, 0, 0, 0, 1, 1, 0
2109, '1', 1, 1, 1, 17.335, 4.911, 0, 0, 0, 0, 1, 1, 0
2110, '1', 1, 1, 1, 4.404, 1.248, 0, 0, 0, 0, 1, 1, 0
2111, '1', 1, 1, 1, 7.154, 2.027, 0, 0, 0, 0, 1, 1, 0
2112, '1', 1, 1, 1, 2.329, 0.66, 0, 0, 0, 0, 1, 1, 0
2114, '1', 1, 1, 1, 36.287, 10.281, 0, 0, 0, 0, 1, 1, 0
2121, '1', 1, 1, 1, 1.197, 0.339, 0, 0, 0, 0, 1, 1, 0
2122, '1', 1, 1, 1, 3.447, 0.977, 0, 0, 0, 0, 1, 1, 0
2124, '1', 1, 1, 1, 10.913, 3.092, 0, 0, 0, 0, 1, 1, 0
2125, '1', 1, 1, 1, 2.08, 0.589, 0, 0, 0, 0, 1, 1, 0
2126, '1', 1, 1, 1, 7.298, 2.068, 0, 0, 0, 0, 1, 1, 0
2129, '1', 1, 1, 1, 3.401, 0.964, 0, 0, 0, 0, 1, 1, 0
2132, '1', 1, 1, 1, 6.122, 1.734, 0, 0, 0, 0, 1, 1, 0
2133, '1', 1, 1, 1, 2.912, 0.825, 0, 0, 0, 0, 1, 1, 0
3002, '1', 1, 1, 1, 55.775, 15.803, 0, 0, 0, 0, 1, 1, 0
3005, '1', 1, 1, 1, 3.628, 1.028, 0, 0, 0, 0, 1, 1, 0
3006, '1', 1, 1, 1, 3.631, 1.029, 0, 0, 0, 0, 1, 1, 0
3007, '1', 1, 1, 1, 7.395, 2.095, 0, 0, 0, 0, 1, 1, 0
3008, '1', 1, 1, 1, 9.79, 2.774, 0, 0, 0, 0, 1, 1, 0
3009, '1', 1, 1, 1, 6.197, 1.756, 0, 0, 0, 0, 1, 1, 0
3010, '1', 1, 1, 1, 2.308, 0.654, 0, 0, 0, 0, 1, 1, 0
3011, '1', 1, 1, 1, 13.411, 3.8, 0, 0, 0, 0, 1, 1, 0
3012, '1', 1, 1, 1, 0.279, 0.079, 0, 0, 0, 0, 1, 1, 0
3013, '1', 1, 1, 1, 31.904, 9.039, 0, 0, 0, 0, 1, 1, 0
3014, '1', 1, 1, 1, 10.873, 3.081, 0, 0, 0, 0, 1, 1, 0
3015, '1', 1, 1, 1, 2.651, 0.751, 0, 0, 0, 0, 1, 1, 0
3021, '1', 1, 1, 1, 0.959, 0.272, 0, 0, 0, 0, 1, 1, 0
3022, '1', 1, 1, 1, 12.153, 3.443, 0, 0, 0, 0, 1, 1, 0
3023, '1', 1, 1, 1, 5.143, 1.457, 0, 0, 0, 0, 1, 1, 0
3024, '1', 1, 1, 1, 5.007, 1.419, 0, 0, 0, 0, 1, 1, 0
3025, '1', 1, 1, 1, 6.758, 1.915, 0, 0, 0, 0, 1, 1, 0
3029, '1', 1, 1, 1, 2.405, 0.681, 0, 0, 0, 0, 1, 1, 0
3030, '1', 1, 1, 1, 64.107, 18.164, 0, 0, 0, 0, 1, 1, 0
3031, '1', 1, 1, 1, 7.281, 2.063, 0, 0, 0, 0, 1, 1, 0
3032, '1', 1, 1, 1, 36.009, 10.202, 0, 0, 0, 0, 1, 1, 0
3035, '1', 1, 1, 1, 1.712, 0.485, 0, 0, 0, 0, 1, 1, 0
3036, '1', 1, 1, 1, 2.867, 0.813, 0, 0, 0, 0, 1, 1, 0
3040, '1', 1, 1, 1, 7.219, 2.045, 0, 0, 0, 0, 1, 1, 0
3042, '1', 1, 1, 1, 4.326, 1.225, 0, 0, 0, 0, 1, 1, 0
3049, '1', 1, 1, 1, 5.231, 1.482, 0, 0, 0, 0, 1, 1, 0
3051, '1', 1, 1, 1, 71.802, 20.344, 0, 0, 0, 0, 1, 1, 0
3052, '1', 1, 1, 1, 3.991, 1.131, 0, 0, 0, 0, 1, 1, 0
3066, '1', 1, 1, 1, 10.89, 3.085, 0, 0, 0, 0, 1, 1, 0
3069, '1', 1, 1, 1, 1.884, 0.534, 0, 0, 0, 0, 1, 1, 0
3072, '1', 1, 1, 1, 2.958, 0.838, 0, 0, 0, 0, 1, 1, 0
3075, '1', 1, 1, 1, 6.021, 1.706, 0, 0, 0, 0, 1, 1, 0
3076, '1', 1, 1, 1, 5.334, 1.511, 0, 0, 0, 0, 1, 1, 0
3077, '1', 1, 1, 1, 33.929, 9.613, 0, 0, 0, 0, 1, 1, 0
3093, '1', 1, 1, 1, 2.494, 0.707, 0, 0, 0, 0, 1, 1, 0
3099, '1', 1, 1, 1, 5.969, 1.691, 0, 0, 0, 0, 1, 1, 0
3100, '1', 1, 1, 1, 4.213, 1.194, 0, 0, 0, 0, 1, 1, 0
3101, '1', 1, 1, 1, 4.661, 1.321, 0, 0, 0, 0, 1, 1, 0
3102, '1', 1, 1, 1, 37.19, 10.537, 0, 0, 0, 0, 1, 1, 0
3103, '1', 1, 1, 1, 19.431, 5.506, 0, 0, 0, 0, 1, 1, 0
3107, '1', 1, 1, 1, 7.348, 2.082, 0, 0, 0, 0, 1, 1, 0
3108, '1', 1, 1, 1, 11.625, 3.294, 0, 0, 0, 0, 1, 1, 0
3114, '1', 1, 1, 1, 48.583, 13.765, 0, 0, 0, 0, 1, 1, 0
3115, '1', 1, 1, 1, 4.732, 1.341, 0, 0, 0, 0, 1, 1, 0
3123, '1', 1, 1, 1, 32.649, 9.251, 0, 0, 0, 0, 1, 1, 0
3124, '1', 1, 1, 1, 31.895, 9.037, 0, 0, 0, 0, 1, 1, 0
3125, '1', 1, 1, 1, 45.098, 12.778, 0, 0, 0, 0, 1, 1, 0
3126, '1', 1, 1, 1, 4.921, 1.394, 0, 0, 0, 0, 1, 1, 0
3128, '1', 1, 1, 1, 1.394, 0.395, 0, 0, 0, 0, 1, 1, 0
3130, '1', 1, 1, 1, 45.542, 12.903, 0, 0, 0, 0, 1, 1, 0
3132, '1', 1, 1, 1, 4.726, 1.339, 0, 0, 0, 0, 1, 1, 0
3136, '1', 1, 1, 1, 23.205, 6.575, 0, 0, 0, 0, 1, 1, 0
3138, '1', 1, 1, 1, 5.41, 1.533, 0, 0, 0, 0, 1, 1, 0
3139, '1', 1, 1, 1, 7.371, 2.088, 0, 0, 0, 0, 1, 1, 0
3140, '1', 1, 1, 1, 0.11, 0.031, 0, 0, 0, 0, 1, 1, 0
3142, '1', 1, 1, 1, 3.493, 0.989, 0, 0, 0, 0, 1, 1, 0
3143, '1', 1, 1, 1, 2.844, 0.806, 0, 0, 0, 0, 1, 1, 0
3144, '1', 1, 1, 1, 2.746, 0.779, 0, 0, 0, 0, 1, 1, 0
3145, '1', 1, 1, 1, 1.452, 0.412, 0, 0, 0, 0, 1, 1, 0
3146, '1', 1, 1, 1, 5.948, 1.686, 0, 0, 0, 0, 1, 1, 0
3147, '1', 1, 1, 1, 17.177, 4.867, 0, 0, 0, 0, 1, 1, 0
4002, '1', 1, 1, 1, 0.542, 0.153, 0, 0, 0, 0, 1, 1, 0
4003, '1', 1, 1, 1, 68.394, 19.378, 0, 0, 0, 0, 1, 1, 0
4005, '1', 1, 1, 1, 88.191, 24.988, 0, 0, 0, 0, 1, 1, 0
4006, '1', 1, 1, 1, 1.48, 0.419, 0, 0, 0, 0, 1, 1, 0
4007, '1', 1, 1, 1, 98.678, 27.959, 0, 0, 0, 0, 1, 1, 0
4008, '1', 1, 1, 1, 17.458, 4.947, 0, 0, 0, 0, 1, 1, 0
4011, '1', 1, 1, 1, 8.624, 2.443, 0, 0, 0, 0, 1, 1, 0
4012, '1', 1, 1, 1, 7.382, 2.092, 0, 0, 0, 0, 1, 1, 0
4013, '1', 1, 1, 1, 49.619, 14.059, 0, 0, 0, 0, 1, 1, 0
4015, '1', 1, 1, 1, 85.864, 24.328, 0, 0, 0, 0, 1, 1, 0
4016, '1', 1, 1, 1, 3.356, 0.951, 0, 0, 0, 0, 1, 1, 0
4017, '1', 1, 1, 1, 48.121, 13.634, 0, 0, 0, 0, 1, 1, 0
4018, '1', 1, 1, 1, 3.835, 1.086, 0, 0, 0, 0, 1, 1, 0
4019, '1', 1, 1, 1, 72.98, 20.677, 0, 0, 0, 0, 1, 1, 0
4020, '1', 1, 1, 1, 63.3, 17.935, 0, 0, 0, 0, 1, 1, 0
4021, '1', 1, 1, 1, 17.178, 4.867, 0, 0, 0, 0, 1, 1, 0
4022, '1', 1, 1, 1, 2.99, 0.847, 0, 0, 0, 0, 1, 1, 0
4023, '1', 1, 1, 1, 2.721, 0.771, 0, 0, 0, 0, 1, 1, 0
4027, '1', 1, 1, 1, 34.988, 9.913, 0, 0, 0, 0, 1, 1, 0
4031, '1', 1, 1, 1, 1.476, 0.418, 0, 0, 0, 0, 1, 1, 0
4032, '1', 1, 1, 1, 49.103, 13.912, 0, 0, 0, 0, 1, 1, 0
4033, '1', 1, 1, 1, 67.833, 19.219, 0, 0, 0, 0, 1, 1, 0
4034, '1', 1, 1, 1, 20.224, 5.73, 0, 0, 0, 0, 1, 1, 0
4035, '1', 1, 1, 1, 42.533, 12.051, 0, 0, 0, 0, 1, 1, 0
4036, '1', 1, 1, 1, 18.843, 5.339, 0, 0, 0, 0, 1, 1, 0
4037, '1', 1, 1, 1, 15.432, 4.372, 0, 0, 0, 0, 1, 1, 0
4038, '1', 1, 1, 1, 44.759, 12.682, 0, 0, 0, 0, 1, 1, 0
4040, '1', 1, 1, 1, 121.248, 34.354, 0, 0, 0, 0, 1, 1, 0
4042, '1', 1, 1, 1, 115.614, 32.757, 0, 0, 0, 0, 1, 1, 0
4043, '1', 1, 1, 1, 1.33, 0.377, 0, 0, 0, 0, 1, 1, 0
4048, '1', 1, 1, 1, 7.041, 1.995, 0, 0, 0, 0, 1, 1, 0
...
0 / END OF LOAD DATA, BEGIN FIXED SHUNT DATA
0 / END OF FIXED SHUNT DATA, BEGIN GENERATOR DATA
1004, '1', 17.6, -30.38, 44.94, -30.38, 1.018668, 0, 0, 0, 1.0, 0, 0, 1, 1, 1, 17.6, 0, 1, 1, 0, 1, 0, 1, 0, 1, 0, 1
1006, '1', 20.7, -4.94, 7.31, -4.94, 1.0028927, 0, 0, 0, 1.0, 0, 0, 1, 1, 1, 20.7, 0, 1, 1, 0, 1, 0, 1, 0, 1, 0, 1
1009, '1', 2.9, -11.88, 17.57, -11.88, 1.0085732, 0, 0, 0, 1.0, 0, 0, 1, 1, 1, 2.9, 0, 1, 1, 0, 1, 0, 1, 0, 1, 0, 1
1011, '1', 0, 0, 0, 0, 1.0504139, 0, 0, 0, 1.0, 0, 0, 1, 1, 1, 0, 0, 1, 1, 0, 1, 0, 1, 0, 1, 0, 1
1021, '1', 130.9, -28.73, 42.49, -28.73, 1, 0, 0, 0, 1.0, 0, 0, 1, 1, 1, 130.9, 0, 1, 1, 0, 1, 0, 1, 0, 1, 0, 1
1023, '1', 5.5, -25.92, 38.34, -25.92, 1.01, 0, 0, 0, 1.0, 0, 0, 1, 1, 1, 5.5, 0, 1, 1, 0, 1, 0, 1, 0, 1, 0, 1
1026, '1', 95, -17.88, 26.45, -17.88, 1.03, 0, 0, 0, 1.0, 0, 0, 1, 1, 1, 95, 0, 1, 1, 0, 1, 0, 1, 0, 1, 0, 1
1033, '1', 0, -40.03, 59.21, -40.03, 1.0111337, 0, 0, 0, 1.0, 0, 0, 1, 1, 1, 0, 0, 1, 1, 0, 1, 0, 1, 0, 1, 0, 1
1035, '1', 72.2, -12.96, 19.17, -12.96, 1, 0, 0, 0, 1.0, 0, 0, 1, 1, 1, 72.2, 0, 1, 1, 0, 1, 0, 1, 0, 1, 0, 1
1039, '1', 12.6, -21.24, 31.42, -21.24, 1, 0, 0, 0, 1.0, 0, 0, 1, 1, 1, 12.6, 0, 1, 1, 0, 1, 0, 1, 0, 1, 0, 1
1042, '1', 85.188, 21.259, 25.96, -17.55, 1.0070243, 0, 0, 0, 1.0, 0, 0, 1, 0, 1, 114.2, 0, 1, 1, 0, 1, 0, 1, 0, 1, 0, 1
1043, '1', 55.1, -8.47, 12.52, -8.47, 1.0222014, 0, 0, 0, 1.0, 0, 0, 1, 1, 1, 55.1, 0, 1, 1, 0, 1, 0, 1, 0, 1, 0, 1
1048, '1', 100.781, -16.551, 165.53, -36.1, 1.0098512, 0, 0, 0, 1.0, 0, 0, 1, 0, 1, 325.2, 97.56, 1, 1, 0, 1, 0, 1, 0, 1, 0, 1
1049, '1', 119.663, 3.735, 165.53, -36.1, 1.0098512, 0, 0, 0, 1.0, 0, 0, 1, 0, 1, 325.2, 97.56, 1, 1, 0, 1, 0, 1, 0, 1, 0, 1
1050, '1', 27.293417, -9.92, 45.5, -9.92, 1.0004735, 0, 0, 0, 1.0, 0, 0, 1, 1, 1, 89.4, 26.82, 1, 1, 0, 1, 0, 1, 0, 1, 0, 1
1051, '1', 27.293417, -9.92, 45.5, -9.92, 1, 0, 0, 0, 1.0, 0, 0, 1, 1, 1, 89.4, 26.82, 1, 1, 0, 1, 0, 1, 0, 1, 0, 1
1052, '1', 27.293417, -9.92, 45.5, -9.92, 1.0024117, 0, 0, 0, 1.0, 0, 0, 1, 1, 1, 89.4, 26.82, 1, 1, 0, 1, 0, 1, 0, 1, 0, 1
1053, '1', 55.411, -19.85, 91.01, -19.85, 1.0166886, 0, 0, 0, 1.0, 0, 0, 1, 0, 1, 178.8, 53.64, 1, 1, 0, 1, 0, 1, 0, 1, 0, 1
1057, '1', 89.407, -8.373, 25.56, -17.28, 1.015, 0, 0, 0, 1.0, 0, 0, 1, 0, 1, 89.7, 0, 1, 1, 0, 1, 0, 1, 0, 1, 0, 1
1059, '1', 5.294, 2.85, 2.85, -0.62, 1.025689, 0, 0, 0, 1.0, 0, 0, 1, 0, 1, 5.6, 1.68, 1, 1, 0, 1, 0, 1, 0, 1, 0, 1
1060, '1', 0.62, 1.02, 1.02, -0.22, 1.025689, 0, 0, 0, 1.0, 0, 0, 1, 0, 1, 2, 0.6, 1, 1, 0, 1, 0, 1, 0, 1, 0, 1
1062, '1', -0.006, 0, 0, 0, 1.0126411, 0, 0, 0, 1.0, 0, 0, 1, 0, 1, 1.5, 0.45, 1, 1, 0, 1, 0, 1, 0, 1, 0, 1
1063, '1', 81.116, 0, 0, 0, 1.0126411, 0, 0, 0, 1.0, 0, 0, 1, 0, 1, 230, 69, 1, 1, 0, 1, 0, 1, 0, 1, 0, 1
1066, '1', 99.8, -20.52, 30.35, -20.52, 1, 0, 0, 0, 1.0, 0, 0, 1, 1, 1, 99.8, 0, 1, 1, 0, 1, 0, 1, 0, 1, 0, 1
1070, '1', 93.8, -23.11, 34.19, -23.11, 1.04, 0, 0, 0, 1.0, 0, 0, 1, 1, 1, 93.8, 0, 1, 1, 0, 1, 0, 1, 0, 1, 0, 1
1072, '1', 58.657423, -21.33, 97.8, -21.33, 1.01, 0, 0, 0, 1.0, 0, 0, 1, 1, 1, 192.13, 57.64, 1, 1, 0, 1, 0, 1, 0, 1, 0, 1
1073, '1', 58.657423, -21.33, 97.8, -21.33, 1.01, 0, 0, 0, 1.0, 0, 0, 1, 1, 1, 192.13, 57.64, 1, 1, 0, 1, 0, 1, 0, 1, 0, 1
1074, '1', 58.657423, -21.33, 97.8, -21.33, 1.01, 0, 0, 0, 1.0, 0, 0, 1, 1, 1, 192.13, 57.64, 1, 1, 0, 1, 0, 1, 0, 1, 0, 1
1075, '1', 58.657423, -21.33, 97.8, -21.33, 1.01, 0, 0, 0, 1.0, 0, 0, 1, 1, 1, 192.13, 57.64, 1, 1, 0, 1, 0, 1, 0, 1, 0, 1
1076, '1', 113.337, -0.71, 97.8, -21.33, 1.012902, 0, 0, 0, 1.0, 0, 0, 1, 0, 1, 192.13, 57.64, 1, 1, 0, 1, 0, 1, 0, 1, 0, 1
1077, '1', 86.439, -0.414, 97.8, -21.33, 1.012902, 0, 0, 0, 1.0, 0, 0, 1, 0, 1, 192.13, 57.64, 1, 1, 0, 1, 0, 1, 0, 1, 0, 1
1078, '1', 29.155719, -10.6, 48.61, -10.6, 1.01, 0, 0, 0, 1.0, 0, 0, 1, 1, 1, 95.5, 28.65, 1, 1, 0, 1, 0, 1, 0, 1, 0, 1
1079, '1', 29.155719, -10.6, 48.61, -10.6, 1.0516278, 0, 0, 0, 1.0, 0, 0, 1, 1, 1, 95.5, 28.65, 1, 1, 0, 1, 0, 1, 0, 1, 0, 1
1080, '1', 29.155719, -10.6, 48.61, -10.6, 1.01, 0, 0, 0, 1.0, 0, 0, 1, 1, 1, 95.5, 28.65, 1, 1, 0, 1, 0, 1, 0, 1, 0, 1
1081, '1', 85.95, -31.8, 145.83, -31.8, 1.0178936, 0, 0, 0, 1.0, 0, 0, 1, 0, 1, 286.5, 85.95, 1, 1, 0, 1, 0, 1, 0, 1, 0, 1
1082, '1', 64, -21.6, 31.95, -21.6, 1.0145437, 0, 0, 0, 1.0, 0, 0, 1, 1, 1, 64, 0, 1, 1, 0, 1, 0, 1, 0, 1, 0, 1
1084, '1', 91.6, -16.63, 24.6, -16.63, 1.0250743, 0, 0, 0, 1.0, 0, 0, 1, 1, 1, 91.6, 0, 1, 1, 0, 1, 0, 1, 0, 1, 0, 1
1088, '1', 45.4, -10.8, 15.97, -10.8, 1, 0, 0, 0, 1.0, 0, 0, 1, 1, 1, 45.4, 0, 1, 1, 0, 1, 0, 1, 0, 1, 0, 1
1090, '1', 114.2, -21.96, 32.48, -21.96, 1.02, 0, 0, 0, 1.0, 0, 0, 1, 1, 1, 114.2, 0, 1, 1, 0, 1, 0, 1, 0, 1, 0, 1
1090, '2', 27, -5.18, 7.67, -5.18, 1.02, 0, 0, 0, 1.0, 0, 0, 1, 1, 1, 27, 0, 1, 1, 0, 1, 0, 1, 0, 1, 0, 1
2004, '1', 0, 0, 199.43, -43.49, 1.0304962, 0, 0, 0, 1.0, 0, 0, 1, 0, 1, 391.8, 117.54, 1, 1, 0, 1, 0, 1, 0, 1, 0, 1
2005, '1', 0, 0, 199.43, -43.49, 1.0304962, 0, 0, 0, 1.0, 0, 0, 1, 0, 1, 391.8, 117.54, 1, 1, 0, 1, 0, 1, 0, 1, 0, 1
2006, '1', 121.421, -36.294, 199.43, -43.49, 1.0304962, 0, 0, 0, 1.0, 0, 0, 1, 0, 1, 391.8, 117.54, 1, 1, 0, 1, 0, 1, 0, 1, 0, 1
2013, '1', 55.6, -28.89, 42.73, -28.89, 1.0321013, 0, 0, 0, 1.0, 0, 0, 1, 1, 1, 55.6, 0, 1, 1, 0, 1, 0, 1, 0, 1, 0, 1
2019, '1', 116.367, -21.895, 46.43, -31.39, 1.0248179, 0, 0, 0, 1.0, 0, 0, 1, 0, 1, 116.9, 0, 1, 1, 0, 1, 0, 1, 0, 1, 0, 1
2023, '1', 25.441273, -9.25, 42.42, -9.25, 1.0279843, 0, 0, 0, 1.0, 0, 0, 1, 1, 1, 83.33, 25, 1, 1, 0, 1, 0, 1, 0, 1, 0, 1
2024, '1', 50.882599, -18.5, 84.83, -18.5, 1.0266887, 0, 0, 0, 1.0, 0, 0, 1, 1, 1, 166.67, 50, 1, 1, 0, 1, 0, 1, 0, 1, 0, 1
2042, '1', 20.1, -11.46, 16.95, -11.46, 1.0209863, 0, 0, 0, 1.0, 0, 0, 1, 1, 1, 20.1, 0, 1, 1, 0, 1, 0, 1, 0, 1, 0, 1
2056, '1', 5.896, -0.73, 2.8, -0.73, 1.0309121, 0, 0, 0, 1.0, 0, 0, 1, 0, 1, 6, 1.8, 1, 1, 0, 1, 0, 1, 0, 1, 0, 1
2057, '1', 219.81275, -87.84, 335.52, -87.84, 1.0197028, 0, 0, 0, 1.0, 0, 0, 1, 1, 1, 720, 216, 1, 1, 0, 1, 0, 1, 0, 1, 0, 1
2059, '1', 6.6, -11.52, 17.04, -11.52, 1.0181217, 0, 0, 0, 1.0, 0, 0, 1, 1, 1, 6.6, 0, 1, 1, 0, 1, 0, 1, 0, 1, 0, 1
2062, '1', 48.3, -19.5, 28.84, -19.5, 1.02, 0, 0, 0, 1.0, 0, 0, 1, 1, 1, 48.3, 0, 1, 1, 0, 1, 0, 1, 0, 1, 0, 1
2071, '1', 118.9, -21.6, 31.95, -21.6, 1.0101799, 0, 0, 0, 1.0, 0, 0, 1, 1, 1, 118.9, 0, 1, 1, 0, 1, 0, 1, 0, 1, 0, 1
2076, '1', 10.4, -4.32, 6.39, -4.32, 1.0372958, 0, 0, 0, 1.0, 0, 0, 1, 1, 1, 10.4, 0, 1, 1, 0, 1, 0, 1, 0, 1, 0, 1
2078, '1', 18.1, -16.2, 23.96, -16.2, 1.02, 0, 0, 0, 1.0, 0, 0, 1, 1, 1, 18.1, 0, 1, 1, 0, 1, 0, 1, 0, 1, 0, 1
2083, '1', 20, -2.22, 10.18, -2.22, 1.0212457, 0, 0, 0, 1.0, 0, 0, 1, 1, 1, 20, 6, 1, 1, 0, 1, 0, 1, 0, 1, 0, 1
2084, '1', 18.784, -2.22, 10.18, -2.22, 1.0239428, 0, 0, 0, 1.0, 0, 0, 1, 0, 1, 20, 6, 1, 1, 0, 1, 0, 1, 0, 1, 0, 1
2085, '1', 39.902, -2.664, 20.36, -4.44, 1.0239428, 0, 0, 0, 1.0, 0, 0, 1, 0, 1, 40, 12, 1, 1, 0, 1, 0, 1, 0, 1, 0, 1
2089, '1', 12.6, -9.73, 14.4, -9.73, 1.0106895, 0, 0, 0, 1.0, 0, 0, 1, 1, 1, 12.6, 0, 1, 1, 0, 1, 0, 1, 0, 1, 0, 1
2094, '1', 2.276, -1.44, 2.13, -1.44, 1.0302085, 0, 0, 0, 1.0, 0, 0, 1, 0, 1, 2.3, 0, 1, 1, 0, 1, 0, 1, 0, 1, 0, 1
2095, '1', 18.406, -11.45, 16.93, -11.45, 1.0302085, 0, 0, 0, 1.0, 0, 0, 1, 0, 1, 18.6, 0, 1, 1, 0, 1, 0, 1, 0, 1, 0, 1
2099, '1', 0.3, -1.44, 2.13, -1.44, 1.0007409, 0, 0, 0, 1.0, 0, 0, 1, 1, 1, 0.3, 0, 1, 1, 0, 1, 0, 1, 0, 1, 0, 1
2100, '1', 4.9, -21.6, 31.95, -21.6, 1.0133867, 0, 0, 0, 1.0, 0, 0, 1, 1, 1, 4.9, 0, 1, 1, 0, 1, 0, 1, 0, 1, 0, 1
2103, '1', 0, 0, 136.28, -29.72, 1.0295155, 0, 0, 0, 1.0, 0, 0, 1, 0, 1, 267.73, 80.32, 1, 1, 0, 1, 0, 1, 0, 1, 0, 1
2104, '1', 80.32, -29.72, 136.28, -29.72, 1.0295155, 0, 0, 0, 1.0, 0, 0, 1, 0, 1, 267.73, 80.32, 1, 1, 0, 1, 0, 1, 0, 1, 0, 1
2105, '1', 0, 0, 136.28, -29.72, 1.0295155, 0, 0, 0, 1.0, 0, 0, 1, 0, 1, 267.73, 80.32, 1, 1, 0, 1, 0, 1, 0, 1, 0, 1
2115, '1', 56.388183, -20.5, 94.02, -20.5, 1.0232983, 0, 0, 0, 1.0, 0, 0, 1, 1, 1, 184.72, 55.41, 1, 1, 0, 1, 0, 1, 0, 1, 0, 1
2116, '1', 56.388183, -20.5, 94.02, -20.5, 1.0268831, 0, 0, 0, 1.0, 0, 0, 1, 1, 1, 184.72, 55.41, 1, 1, 0, 1, 0, 1, 0, 1, 0, 1
2117, '1', 56.388183, -20.5, 94.02, -20.5, 1.0218142, 0, 0, 0, 1.0, 0, 0, 1, 1, 1, 184.72, 55.41, 1, 1, 0, 1, 0, 1, 0, 1, 0, 1
2118, '1', 56.388183, -20.5, 94.02, -20.5, 1.0208946, 0, 0, 0, 1.0, 0, 0, 1, 1, 1, 184.72, 55.41, 1, 1, 0, 1, 0, 1, 0, 1, 0, 1
2119, '1', 56.388183, -20.5, 94.02, -20.5, 1.0260208, 0, 0, 0, 1.0, 0, 0, 1, 1, 1, 184.72, 55.41, 1, 1, 0, 1, 0, 1, 0, 1, 0, 1
2120, '1', 56.388183, -20.5, 94.02, -20.5, 1.0213434, 0, 0, 0, 1.0, 0, 0, 1, 1, 1, 184.72, 55.41, 1, 1, 0, 1, 0, 1, 0, 1, 0, 1
2123, '1', 90.3, -26.16, 38.7, -26.16, 1.0295634, 0, 0, 0, 1.0, 0, 0, 1, 1, 1, 90.3, 0, 1, 1, 0, 1, 0, 1, 0, 1, 0, 1
2127, '1', 167.9, 28.231985, 61.47, -41.56, 1.0400449, 0, 0, 0, 1.0, 0, 0, 1, 1, 1, 167.9, 0, 1, 1, 0, 1, 0, 1, 0, 1, 0, 1
3004, '1', 26.4, -5.4, 7.99, -5.4, 1.0110816, 0, 0, 0, 1.0, 0, 0, 1, 1, 1, 26.4, 0, 1, 1, 0, 1, 0, 1, 0, 1, 0, 1
3017, '1', 57.5, -24.41, 36.1, -24.41, 1.01, 0, 0, 0, 1.0, 0, 0, 1, 1, 1, 57.5, 0, 1, 1, 0, 1, 0, 1, 0, 1, 0, 1
3020, '1', 30.5, -21.6, 31.95, -21.6, 1.03, 0, 0, 0, 1.0, 0, 0, 1, 1, 1, 30.5, 0, 1, 1, 0, 1, 0, 1, 0, 1, 0, 1
3028, '1', 56.2, -28.8, 42.6, -28.8, 1.04, 0, 0, 0, 1.0, 0, 0, 1, 1, 1, 56.2, 0, 1, 1, 0, 1, 0, 1, 0, 1, 0, 1
3034, '1', 64.4, -18.79, 27.8, -18.79, 1.03, 0, 0, 0, 1.0, 0, 0, 1, 1, 1, 64.4, 0, 1, 1, 0, 1, 0, 1, 0, 1, 0, 1
3039, '1', 125.8, -30.1, 44.52, -30.1, 1.04, 0, 0, 0, 1.0, 0, 0, 1, 1, 1, 125.8, 0, 1, 1, 0, 1, 0, 1, 0, 1, 0, 1
3043, '1', 0.39, -0.14, 0.66, -0.14, 1.037402, 0, 0, 0, 1.0, 0, 0, 1, 0, 1, 1.3, 0.39, 1, 1, 0, 1, 0, 1, 0, 1, 0, 1
3044, '1', 27.706, 5.629, 45.5, -9.92, 1.037402, 0, 0, 0, 1.0, 0, 0, 1, 0, 1, 89.4, 26.82, 1, 1, 0, 1, 0, 1, 0, 1, 0, 1
3045, '1', 0, 0, 227.52, -49.62, 1.037402, 0, 0, 0, 1.0, 0, 0, 1, 0, 1, 447, 134.1, 1, 1, 0, 1, 0, 1, 0, 1, 0, 1
3048, '1', 127.7, -34.7, 51.33, -34.7, 1.0500368, 0, 0, 0, 1.0, 0, 0, 1, 1, 1, 127.7, 0, 1, 1, 0, 1, 0, 1, 0, 1, 0, 1
3055, '1', 55.8, -35.3, 52.22, -35.3, 1.04, 0, 0, 0, 1.0, 0, 0, 1, 1, 1, 55.8, 0, 1, 1, 0, 1, 0, 1, 0, 1, 0, 1
3056, '1', 55.8, -35.3, 52.22, -35.3, 1.04, 0, 0, 0, 1.0, 0, 0, 1, 1, 1, 55.8, 0, 1, 1, 0, 1, 0, 1, 0, 1, 0, 1
3057, '1', 55.8, -35.3, 52.22, -35.3, 1.04, 0, 0, 0, 1.0, 0, 0, 1, 1, 1, 55.8, 0, 1, 1, 0, 1, 0, 1, 0, 1, 0, 1
3060, '1', 85.2, -23.85, 35.28, -23.85, 1.04, 0, 0, 0, 1.0, 0, 0, 1, 1, 1, 85.2, 0, 1, 1, 0, 1, 0, 1, 0, 1, 0, 1
3061, '1', 0.5, -23.85, 35.28, -23.85, 1.04, 0, 0, 0, 1.0, 0, 0, 1, 1, 1, 0.5, 0, 1, 1, 0, 1, 0, 1, 0, 1, 0, 1
3062, '1', 85.2, -23.85, 35.28, -23.85, 1.04, 0, 0, 0, 1.0, 0, 0, 1, 1, 1, 85.2, 0, 1, 1, 0, 1, 0, 1, 0, 1, 0, 1
3063, '1', 85.2, -23.85, 35.28, -23.85, 1.04, 0, 0, 0, 1.0, 0, 0, 1, 1, 1, 85.2, 0, 1, 1, 0, 1, 0, 1, 0, 1, 0, 1
3065, '1', 32.3, -11.59, 17.15, -11.59, 1, 0, 0, 0, 1.0, 0, 0, 1, 1, 1, 32.3, 0, 1, 1, 0, 1, 0, 1, 0, 1, 0, 1
3068, '1', 36.5, -21.6, 31.95, -21.6, 1.04, 0, 0, 0, 1.0, 0, 0, 1, 1, 1, 36.5, 0, 1, 1, 0, 1, 0, 1, 0, 1, 0, 1
3071, '1', 5.2, -24.51, 36.25, -24.51, 1.003378, 0, 0, 0, 1.0, 0, 0, 1, 1, 1, 5.2, 0, 1, 1, 0, 1, 0, 1, 0, 1, 0, 1
3074, '1', 4.7, -14.37, 21.26, -14.37, 1, 0, 0, 0, 1.0, 0, 0, 1, 1, 1, 4.7, 0, 1, 1, 0, 1, 0, 1, 0, 1, 0, 1
3081, '1', 202.7, -35.86, 53.04, -35.86, 1.04, 0, 0, 0, 1.0, 0, 0, 1, 1, 1, 202.7, 0, 1, 1, 0, 1, 0, 1, 0, 1, 0, 1
3084, '1', 148, -33.48, 49.52, -33.48, 1, 0, 0, 0, 1.0, 0, 0, 1, 1, 1, 148, 0, 1, 1, 0, 1, 0, 1, 0, 1, 0, 1
3086, '1', 39.7, -10.8, 15.97, -10.8, 1, 0, 0, 0, 1.0, 0, 0, 1, 1, 1, 39.7, 0, 1, 1, 0, 1, 0, 1, 0, 1, 0, 1
3087, '1', 39.517, -6.085, 15.97, -10.8, 1.0149919, 0, 0, 0, 1.0, 0, 0, 1, 0, 1, 39.7, 0, 1, 1, 0, 1, 0, 1, 0, 1, 0, 1
3092, '1', 64.2, -28.8, 42.6, -28.8, 1.04, 0, 0, 0, 1.0, 0, 0, 1, 1, 1, 64.2, 0, 1, 1, 0, 1, 0, 1, 0, 1, 0, 1
3095, '1', 62.3, -17.37, 25.69, -17.37, 1.04, 0, 0, 0, 1.0, 0, 0, 1, 1, 1, 62.3, 0, 1, 1, 0, 1, 0, 1, 0, 1, 0, 1
3098, '1', 62.9, -23.04, 34.08, -23.04, 1.04, 0, 0, 0, 1.0, 0, 0, 1, 1, 1, 62.9, 0, 1, 1, 0, 1, 0, 1, 0, 1, 0, 1
3105, '1', 0, -0.74, 17.071, -0.74, 1.0210546, 0, 0, 0, 1.0, 0, 0, 1, 1, 1, 0, 0, 1, 1, 0, 1, 0, 1, 0, 1, 0, 1
3106, '1', 0, -2.69, 62.477, -2.69, 1.0168472, 0, 0, 0, 1.0, 0, 0, 1, 1, 1, 0, 0, 1, 1, 0, 1, 0, 1, 0, 1, 0, 1
3110, '1', 30.7, -12.1, 17.89, -12.1, 1.04, 0, 0, 0, 1.0, 0, 0, 1, 1, 1, 30.7, 0, 1, 1, 0, 1, 0, 1, 0, 1, 0, 1
3112, '1', 57.2, -10.77, 15.93, -10.77, 1, 0, 0, 0, 1.0, 0, 0, 1, 1, 1, 57.2, 0, 1, 1, 0, 1, 0, 1, 0, 1, 0, 1
3113, '1', 11.7, -10.77, 15.93, -10.77, 1, 0, 0, 0, 1.0, 0, 0, 1, 1, 1, 11.7, 0, 1, 1, 0, 1, 0, 1, 0, 1, 0, 1
3117, '1', 47.2, -9.07, 13.42, -9.07, 1.0008404, 0, 0, 0, 1.0, 0, 0, 1, 1, 1, 47.2, 0, 1, 1, 0, 1, 0, 1, 0, 1, 0, 1
3118, '1', 28.8, -17.28, 25.56, -17.28, 1, 0, 0, 0, 1.0, 0, 0, 1, 1, 1, 28.8, 0, 1, 1, 0, 1, 0, 1, 0, 1, 0, 1
3120, '1', 0, 0, 0, 0, 1.0150585, 0, 0, 0, 1.0, 0, 0, 1, 1, 1, 0, 0, 1, 1, 0, 1, 0, 1, 0, 1, 0, 1
3122, '1', 127.3, -28.37, 41.96, -28.37, 1, 0, 0, 0, 1.0, 0, 0, 1, 1, 1, 127.3, 0, 1, 1, 0, 1, 0, 1, 0, 1, 0, 1
3127, '1', 55.6, -19.44, 28.76, -19.44, 1.0144432, 0, 0, 0, 1.0, 0, 0, 1, 1, 1, 55.6, 0, 1, 1, 0, 1, 0, 1, 0, 1, 0, 1
3129, '1', 65.7, -18.22, 26.94, -18.22, 1.0127692, 0, 0, 0, 1.0, 0, 0, 1, 1, 1, 65.7, 0, 1, 1, 0, 1, 0, 1, 0, 1, 0, 1
3131, '1', 25.6, -16.42, 24.28, -16.42, 1.02, 0, 0, 0, 1.0, 0, 0, 1, 1, 1, 25.6, 0, 1, 1, 0, 1, 0, 1, 0, 1, 0, 1
3133, '1', 15.39, 8.883, 26.11, -5.69, 1.0268077, 0, 0, 0, 1.0, 0, 0, 1, 0, 1, 51.3, 15.39, 1, 1, 0, 1, 0, 1, 0, 1, 0, 1
3133, '2', 15.39, 8.883, 26.11, -5.69, 1.0268077, 0, 0, 0, 1.0, 0, 0, 1, 0, 1, 51.3, 15.39, 1, 1, 0, 1, 0, 1, 0, 1, 0, 1
3133, '3', 15.39, 8.883, 26.11, -5.69, 1.0268077, 0, 0, 0, 1.0, 0, 0, 1, 0, 1, 51.3, 15.39, 1, 1, 0, 1, 0, 1, 0, 1, 0, 1
3137, '1', 28.3, -14.57, 21.56, -14.57, 1.0278814, 0, 0, 0, 1.0, 0, 0, 1, 1, 1, 28.3, 0, 1, 1, 0, 1, 0, 1, 0, 1, 0, 1
3141, '1', 56.2, -13.18, 19.49, -13.18, 1.016236, 0, 0, 0, 1.0, 0, 0, 1, 1, 1, 56.2, 0, 1, 1, 0, 1, 0, 1, 0, 1, 0, 1
4010, '1', 0, -29.03, 42.94, -29.03, 1.03, 0, 0, 0, 1.0, 0, 0, 1, 1, 1, 0, 0, 1, 1, 0, 1, 0, 1, 0, 1, 0, 1
4026, '1', 125.17115, -50.02, 191.06, -50.02, 1.03, 0, 0, 0, 1.0, 0, 0, 1, 1, 1, 410, 123, 1, 1, 0, 1, 0, 1, 0, 1, 0, 1
4030, '1', 190.01591, -75.93, 290.04, -75.93, 1.0113572, 0, 0, 0, 1.0, 0, 0, 1, 1, 1, 622.4, 186.72, 1, 1, 0, 1, 0, 1, 0, 1, 0, 1
4045, '1', 0, -1.54, 35.862, -1.54, 1.02, 0, 0, 0, 1.0, 0, 0, 1, 1, 1, 0, 0, 1, 1, 0, 1, 0, 1, 0, 1, 0, 1
4046, '1', 0, -0.47, 10.936, -0.47, 1.02, 0, 0, 0, 1.0, 0, 0, 1, 1, 1, 0, 0, 1, 1, 0, 1, 0, 1, 0, 1, 0, 1
4047, '1', 0, -3.23, 75.102, -3.23, 1.02, 0, 0, 0, 1.0, 0, 0, 1, 1, 1, 0, 0, 1, 1, 0, 1, 0, 1, 0, 1, 0, 1
4050, '1', 15.2, -28.8, 42.6, -28.8, 1, 0, 0, 0, 1.0, 0, 0, 1, 1, 1, 15.2, 0, 1, 1, 0, 1, 0, 1, 0, 1, 0, 1
4052, '1', 13.494061, -4.91, 22.5, -4.91, 1.04, 0, 0, 0, 1.0, 0, 0, 1, 1, 1, 44.2, 13.26, 1, 1, 0, 1, 0, 1, 0, 1, 0, 1
4058, '1', 43.962551, -15.98, 73.3, -15.98, 1.03, 0, 0, 0, 1.0, 0, 0, 1, 1, 1, 144, 43.2, 1, 1, 0, 1, 0, 1, 0, 1, 0, 1
4059, '1', 43.962551, -15.98, 73.3, -15.98, 1.03, 0, 0, 0, 1.0, 0, 0, 1, 1, 1, 144, 43.2, 1, 1, 0, 1, 0, 1, 0, 1, 0, 1
4060, '1', 43.962551, -15.98, 73.3, -15.98, 1.03, 0, 0, 0, 1.0, 0, 0, 1, 1, 1, 144, 43.2, 1, 1, 0, 1, 0, 1, 0, 1, 0, 1
4061, '1', 52.612572, -19.13, 87.72, -19.13, 1.03, 0, 0, 0, 1.0, 0, 0, 1, 1, 1, 172.33, 51.7, 1, 1, 0, 1, 0, 1, 0, 1, 0, 1
4062, '1', 52.612572, -19.13, 87.72, -19.13, 1.03, 0, 0, 0, 1.0, 0, 0, 1, 1, 1, 172.33, 51.7, 1, 1, 0, 1, 0, 1, 0, 1, 0, 1
4063, '1', 52.612572, -19.13, 87.72, -19.13, 1.03, 0, 0, 0, 1.0, 0, 0, 1, 1, 1, 172.33, 51.7, 1, 1, 0, 1, 0, 1, 0, 1, 0, 1
4065, '1', 14.348888, -5.22, 23.92, -5.22, 1.02, 0, 0, 0, 1.0, 0, 0, 1, 1, 1, 47, 14.1, 1, 1, 0, 1, 0, 1, 0, 1, 0, 1
4075, '1', 54.647, 23.037, 89.75, -19.57, 1.0168723, 0, 0, 0, 1.0, 0, 0, 1, 0, 1, 176.33, 52.9, 1, 1, 0, 1, 0, 1, 0, 1, 0, 1
4076, '1', 53.833754, -19.57, 89.75, -19.57, 1.03, 0, 0, 0, 1.0, 0, 0, 1, 1, 1, 176.33, 52.9, 1, 1, 0, 1, 0, 1, 0, 1, 0, 1
4077, '1', 53.833754, -19.57, 89.75, -19.57, 1.03, 0, 0, 0, 1.0, 0, 0, 1, 1, 1, 176.33, 52.9, 1, 1, 0, 1, 0, 1, 0, 1, 0, 1
4082, '1', 74.308922, -27.02, 123.89, -27.02, 1.04, 0, 0, 0, 1.0, 0, 0, 1, 1, 1, 243.4, 73.02, 1, 1, 0, 1, 0, 1, 0, 1, 0, 1
4083, '1', 74.308922, -27.02, 123.89, -27.02, 1.04, 0, 0, 0, 1.0, 0, 0, 1, 1, 1, 243.4, 73.02, 1, 1, 0, 1, 0, 1, 0, 1, 0, 1
4084, '1', 74.308922, -27.02, 123.89, -27.02, 1.04, 0, 0, 0, 1.0, 0, 0, 1, 1, 1, 243.4, 73.02, 1, 1, 0, 1, 0, 1, 0, 1, 0, 1
4085, '1', 107.46401, -39.07, 179.17, -39.07, 1.04, 0, 0, 0, 1.0, 0, 0, 1, 1, 1, 352, 105.6, 1, 1, 0, 1, 0, 1, 0, 1, 0, 1
4090, '1', 1.397, 0.411, 0.65, -0.17, 1.01045, 0, 0, 0, 1.0, 0, 0, 1, 0, 1, 1.4, 0.42, 1, 1, 0, 1, 0, 1, 0, 1, 0, 1
4091, '1', 7.174444, -2.87, 10.95, -2.87, 1.01, 0, 0, 0, 1.0, 0, 0, 1, 1, 1, 23.5, 7.05, 1, 1, 0, 1, 0, 1, 0, 1, 0, 1
4092, '1', 7.581, 1.889, 3.54, -0.93, 1.01045, 0, 0, 0, 1.0, 0, 0, 1, 0, 1, 7.6, 2.28, 1, 1, 0, 1, 0, 1, 0, 1, 0, 1
4093, '1', 8.5482737, -3.42, 13.05, -3.42, 1.01, 0, 0, 0, 1.0, 0, 0, 1, 1, 1, 28, 8.4, 1, 1, 0, 1, 0, 1, 0, 1, 0, 1
4094, '1', 8.5482737, -3.42, 13.05, -3.42, 1.01, 0, 0, 0, 1.0, 0, 0, 1, 1, 1, 28, 8.4, 1, 1, 0, 1, 0, 1, 0, 1, 0, 1
4095, '1', 8.5482737, -3.42, 13.05, -3.42, 1.01, 0, 0, 0, 1.0, 0, 0, 1, 1, 1, 28, 8.4, 1, 1, 0, 1, 0, 1, 0, 1, 0, 1
4096, '1', 26.298, 0.043, 13.05, -3.42, 1.01045, 0, 0, 0, 1.0, 0, 0, 1, 0, 1, 28, 8.4, 1, 1, 0, 1, 0, 1, 0, 1, 0, 1
4097, '1', 8.5482737, -3.42, 13.05, -3.42, 1.01, 0, 0, 0, 1.0, 0, 0, 1, 1, 1, 28, 8.4, 1, 1, 0, 1, 0, 1, 0, 1, 0, 1
4098, '1', 26.298, -0.247, 13.05, -3.42, 1.01045, 0, 0, 0, 1.0, 0, 0, 1, 0, 1, 28, 8.4, 1, 1, 0, 1, 0, 1, 0, 1, 0, 1
4105, '1', 23.9, -25.92, 38.34, -25.92, 1.01, 0, 0, 0, 1.0, 0, 0, 1, 1, 1, 23.9, 0, 1, 1, 0, 1, 0, 1, 0, 1, 0, 1
4115, '1', 40.237946, -14.63, 67.09, -14.63, 1.04, 0, 0, 0, 1.0, 0, 0, 1, 1, 1, 131.8, 39.54, 1, 1, 0, 1, 0, 1, 0, 1, 0, 1
4116, '1', 40.237946, -14.63, 67.09, -14.63, 1.04, 0, 0, 0, 1.0, 0, 0, 1, 1, 1, 131.8, 39.54, 1, 1, 0, 1, 0, 1, 0, 1, 0, 1
4133, '1', 10.08, -3.73, 17.1, -3.73, 1.0208441, 0, 0, 0, 1.0, 0, 0, 1, 0, 1, 33.6, 10.08, 1, 1, 0, 1, 0, 1, 0, 1, 0, 1
4134, '1', 10.257928, -3.73, 17.1, -3.73, 1.0155204, 0, 0, 0, 1.0, 0, 0, 1, 1, 1, 33.6, 10.08, 1, 1, 0, 1, 0, 1, 0, 1, 0, 1
4135, '1', 10.257928, -3.73, 17.1, -3.73, 1.0159141, 0, 0, 0, 1.0, 0, 0, 1, 1, 1, 33.6, 10.08, 1, 1, 0, 1, 0, 1, 0, 1, 0, 1
4136, '1', 10.257928, -3.73, 17.1, -3.73, 1.0142209, 0, 0, 0, 1.0, 0, 0, 1, 1, 1, 33.6, 10.08, 1, 1, 0, 1, 0, 1, 0, 1, 0, 1
4137, '1', 20.16, -7.46, 34.2, -7.46, 1.0208441, 0, 0, 0, 1.0, 0, 0, 1, 0, 1, 67.2, 20.16, 1, 1, 0, 1, 0, 1, 0, 1, 0, 1
4138, '1', 0, -7.33, 33.59, -7.33, 1.0208441, 0, 0, 0, 1.0, 0, 0, 1, 0, 1, 66, 19.8, 1, 1, 0, 1, 0, 1, 0, 1, 0, 1
4142, '1', 5.7, -27.07, 40.04, -27.07, 1.04, 0, 0, 0, 1.0, 0, 0, 1, 1, 1, 5.7, 0, 1, 1, 0, 1, 0, 1, 0, 1, 0, 1
4153, '1', 10.2, -40.78, 60.32, -40.78, 1.04, 0, 0, 0, 1.0, 0, 0, 1, 1, 1, 10.2, 0, 1, 1, 0, 1, 0, 1, 0, 1, 0, 1
4160, '1', 60.377289, -21.95, 100.66, -21.95, 1.03, 0, 0, 0, 1.0, 0, 0, 1, 1, 1, 197.77, 59.33, 1, 1, 0, 1, 0, 1, 0, 1, 0, 1
4161, '1', 60.377289, -21.95, 100.66, -21.95, 1.03, 0, 0, 0, 1.0, 0, 0, 1, 1, 1, 197.77, 59.33, 1, 1, 0, 1, 0, 1, 0, 1, 0, 1
4162, '1', 60.377289, -21.95, 100.66, -21.95, 1.03, 0, 0, 0, 1.0, 0, 0, 1, 1, 1, 197.77, 59.33, 1, 1, 0, 1, 0, 1, 0, 1, 0, 1
4163, '1', 8.453, 4.58, 4.58, -1, 1.0232821, 0, 0, 0, 1.0, 0, 0, 1, 0, 1, 9, 2.7, 1, 1, 0, 1, 0, 1, 0, 1, 0, 1
4166, '1', 7.2, -28.94, 42.81, -28.94, 1.0108851, 0, 0, 0, 1.0, 0, 0, 1, 1, 1, 7.2, 0, 1, 1, 0, 1, 0, 1, 0, 1, 0, 1
4177, '1', 114.7, -21.6, 31.95, -21.6, 1.04, 0, 0, 0, 1.0, 0, 0, 1, 1, 1, 114.7, 0, 1, 1, 0, 1, 0, 1, 0, 1, 0, 1
4181, '1', 20.6, -28.81, 42.62, -28.81, 1.0315695, 0, 0, 0, 1.0, 0, 0, 1, 1, 1, 20.6, 0, 1, 1, 0, 1, 0, 1, 0, 1, 0, 1
4183, '1', 134.7, -29.23, 43.24, -29.23, 1.027296, 0, 0, 0, 1.0, 0, 0, 1, 1, 1, 134.7, 0, 1, 1, 0, 1, 0, 1, 0, 1, 0, 1
4192, '1', 22.897162, -8.33, 38.17, -8.33, 1.02, 0, 0, 0, 1.0, 0, 0, 1, 1, 1, 75, 22.5, 1, 1, 0, 1, 0, 1, 0, 1, 0, 1
4192, '10', 56.103152, -20.4, 93.54, -20.4, 1.02, 0, 0, 0, 1.0, 0, 0, 1, 1, 1, 183.77, 55.13, 1, 1, 0, 1, 0, 1, 0, 1, 0, 1
4192, '2', 23.941, 6.996, 12.22, -2.66, 1.02, 0, 0, 0, 1.0, 0, 0, 1, 0, 1, 24, 7.2, 1, 1, 0, 1, 0, 1, 0, 1, 0, 1
4192, '3', 18.623025, -6.77, 31.05, -6.77, 1.02, 0, 0, 0, 1.0, 0, 0, 1, 1, 1, 61, 18.3, 1, 1, 0, 1, 0, 1, 0, 1, 0, 1
4192, '4', 3.1750731, -1.15, 5.29, -1.15, 1.02, 0, 0, 0, 1.0, 0, 0, 1, 1, 1, 10.4, 3.12, 1, 1, 0, 1, 0, 1, 0, 1, 0, 1
4192, '5', 81.513896, -29.64, 135.9, -29.64, 1.02, 0, 0, 0, 1.0, 0, 0, 1, 1, 1, 267, 80.1, 1, 1, 0, 1, 0, 1, 0, 1, 0, 1
4192, '6', 81.513896, -29.64, 135.9, -29.64, 1.02, 0, 0, 0, 1.0, 0, 0, 1, 1, 1, 267, 80.1, 1, 1, 0, 1, 0, 1, 0, 1, 0, 1
4192, '7', 81.513896, -29.64, 135.9, -29.64, 1.02, 0, 0, 0, 1.0, 0, 0, 1, 1, 1, 267, 80.1, 1, 1, 0, 1, 0, 1, 0, 1, 0, 1
4192, '8', 56.103152, -20.4, 93.54, -20.4, 1.02, 0, 0, 0, 1.0, 0, 0, 1, 1, 1, 183.77, 55.13, 1, 1, 0, 1, 0, 1, 0, 1, 0, 1
4192, '9', 56.103152, -20.4, 93.54, -20.4, 1.02, 0, 0, 0, 1.0, 0, 0, 1, 1, 1, 183.77, 55.13, 1, 1, 0, 1, 0, 1, 0, 1, 0, 1
4194, '1', 8.7, -29.03, 42.94, -29.03, 1.0122068, 0, 0, 0, 1.0, 0, 0, 1, 1, 1, 8.7, 0, 1, 1, 0, 1, 0, 1, 0, 1, 0, 1
4195, '1', 3, -13.25, 19.6, -13.25, 1.0336767, 0, 0, 0, 1.0, 0, 0, 1, 1, 1, 3, 0, 1, 1, 0, 1, 0, 1, 0, 1, 0, 1
5020, '1', 3.7, -17.28, 25.56, -17.28, 1.0309695, 0, 0, 0, 1.0, 0, 0, 1, 1, 1, 3.7, 0, 1, 1, 0, 1, 0, 1, 0, 1, 0, 1
5023, '1', 4.538, 2.44, 2.44, -0.53, 1.0262338, 0, 0, 0, 1.0, 0, 0, 1, 0, 1, 4.8, 1.44, 1, 1, 0, 1, 0, 1, 0, 1, 0, 1
5035, '1', 4.19, -0.47, 2.14, -0.47, 1.0231019, 0, 0, 0, 1.0, 0, 0, 1, 0, 1, 4.2, 1.26, 1, 1, 0, 1, 0, 1, 0, 1, 0, 1
5036, '1', 6.05, 0.178, 3.26, -0.71, 1.0231019, 0, 0, 0, 1.0, 0, 0, 1, 0, 1, 6.4, 1.92, 1, 1, 0, 1, 0, 1, 0, 1, 0, 1
5037, '1', 94.1735, -34.24, 157.01, -34.24, 1.02, 0, 0, 0, 1.0, 0, 0, 1, 1, 1, 308.47, 92.54, 1, 1, 0, 1, 0, 1, 0, 1, 0, 1
5038, '1', 94.1735, -34.24, 157.01, -34.24, 1.02, 0, 0, 0, 1.0, 0, 0, 1, 1, 1, 308.47, 92.54, 1, 1, 0, 1, 0, 1, 0, 1, 0, 1
5039, '1', 94.1735, -34.24, 157.01, -34.24, 1.0213114, 0, 0, 0, 1.0, 0, 0, 1, 1, 1, 308.47, 92.54, 1, 1, 0, 1, 0, 1, 0, 1, 0, 1
5040, '1', 94.1735, -34.24, 157.01, -34.24, 1.02, 0, 0, 0, 1.0, 0, 0, 1, 1, 1, 308.47, 92.54, 1, 1, 0, 1, 0, 1, 0, 1, 0, 1
5041, '1', 94.1735, -34.24, 157.01, -34.24, 1.02, 0, 0, 0, 1.0, 0, 0, 1, 1, 1, 308.47, 92.54, 1, 1, 0, 1, 0, 1, 0, 1, 0, 1
5042, '1', 94.1735, -34.24, 157.01, -34.24, 1.02, 0, 0, 0, 1.0, 0, 0, 1, 1, 1, 308.47, 92.54, 1, 1, 0, 1, 0, 1, 0, 1, 0, 1
5051, '1', 25.858528, -9.4, 43.11, -9.4, 1.028601, 0, 0, 0, 1.0, 0, 0, 1, 1, 1, 84.7, 25.41, 1, 1, 0, 1, 0, 1, 0, 1, 0, 1
5057, '1', 316.574, -35.23, 161.53, -35.23, 1.0336027, 0, 0, 0, 1.0, 0, 0, 1, 0, 1, 317.35, 95.2, 1, 1, 0, 1, 0, 1, 0, 1, 0, 1
5058, '1', 96.880524, -35.23, 161.53, -35.23, 1.0271574, 0, 0, 0, 1.0, 0, 0, 1, 1, 1, 317.35, 95.2, 1, 1, 0, 1, 0, 1, 0, 1, 0, 1
5065, '1', 10.6, -1.18, 5.4, -1.18, 1.0273944, 0, 0, 0, 1.0, 0, 0, 1, 1, 1, 10.6, 3.18, 1, 1, 0, 1, 0, 1, 0, 1, 0, 1
5066, '1', 1.796, 0.92, 0.92, -0.2, 1.0264482, 0, 0, 0, 1.0, 0, 0, 1, 0, 1, 1.8, 0.54, 1, 1, 0, 1, 0, 1, 0, 1, 0, 1
5067, '1', 133.80085, -48.65, 223.08, -48.65, 1.03, 0, 0, 0, 1.0, 0, 0, 1, 1, 1, 438.27, 131.48, 1, 1, 0, 1, 0, 1, 0, 1, 0, 1
5068, '1', 133.80085, -48.65, 223.08, -48.65, 1.03, 0, 0, 0, 1.0, 0, 0, 1, 1, 1, 438.27, 131.48, 1, 1, 0, 1, 0, 1, 0, 1, 0, 1
5069, '1', 133.80085, -48.65, 223.08, -48.65, 1.03, 0, 0, 0, 1.0, 0, 0, 1, 1, 1, 438.27, 131.48, 1, 1, 0, 1, 0, 1, 0, 1, 0, 1
5089, '1', 123.798, -2.05, 47.569, -2.05, 1.0298269, 0, 0, 0, 1.0, 0, 0, 1, 0, 1, 123.9, 0, 1, 1, 0, 1, 0, 1, 0, 1, 0, 1
...
0 / END OF GENERATOR DATA, BEGIN BRANCH DATA
1001, 1064, '1', 0.00524, 0.0358, 0.00609, 221, 221, 221, 0, 0, 0, 0, 1, 1, 0, 1, 1, 0, 1, 0, 1, 0, 1
1001, 1064, '2', 0.00524, 0.0358, 0.00609, 221, 221, 221, 0, 0, 0, 0, 1, 1, 0, 1, 1, 0, 1, 0, 1, 0, 1
1001, 1071, '1', 0.00435, 0.02808, 0.00536, 221, 221, 221, 0, 0, 0, 0, 1, 1, 0, 1, 1, 0, 1, 0, 1, 0, 1
1001, 1071, '2', 0.00435, 0.02808, 0.00536, 221, 221, 221, 0, 0, 0, 0, 1, 1, 0, 1, 1, 0, 1, 0, 1, 0, 1
1002, 1007, '1', 0.07776, 0.46693, 0.06336, 98, 98, 98, 0, 0, 0, 0, 1, 1, 0, 1, 1, 0, 1, 0, 1, 0, 1
1010, 1002, '1', 0.05552, 0.1357, 0.01777, 98, 98, 98, 0, 0, 0, 0, 1, 1, 0, 1, 1, 0, 1, 0, 1, 0, 1
1022, 1003, '1', 0.00485, 0.02012, 0.00341, 221, 221, 221, 0, 0, 0, 0, 1, 1, 0, 1, 1, 0, 1, 0, 1, 0, 1
1055, 1003, '1', 0.01574, 0.03782, 0.00513, 98, 98, 98, 0, 0, 0, 0, 1, 1, 0, 1, 1, 0, 1, 0, 1, 0, 1
1004, 3133, '1', 0.0042, 0.03, 0.055, 523, 523, 523, 0, 0, 0, 0, 1, 1, 0, 1, 1, 0, 1, 0, 1, 0, 1
1025, 1005, '1', 0.01842, 0.0821, 0.01204, 149, 149, 149, 0, 0, 0, 0, 1, 1, 0, 1, 1, 0, 1, 0, 1, 0, 1
1005, 1061, '1', 0.00599, 0.02484, 0.00422, 221, 221, 221, 0, 0, 0, 0, 0, 1, 0, 1, 1, 0, 1, 0, 1, 0, 1
1067, 1005, '1', 0.01711, 0.04181, 0.00548, 98, 98, 98, 0, 0, 0, 0, 1, 1, 0, 1, 1, 0, 1, 0, 1, 0, 1
1007, 1015, '1', 0.06224, 0.37375, 0.05072, 98, 98, 98, 0, 0, 0, 0, 1, 1, 0, 1, 1, 0, 1, 0, 1, 0, 1
1031, 1007, '1', 0.04803, 0.27434, 0.04123, 98, 98, 98, 0, 0, 0, 0, 1, 1, 0, 1, 1, 0, 1, 0, 1, 0, 1
1008, 1032, '1', 0.04501, 0.11002, 0.01441, 98, 98, 98, 0, 0, 0, 0, 1, 1, 0, 1, 1, 0, 1, 0, 1, 0, 1
1008, 1069, '1', 0.0083, 0.03628, 0.00553, 149, 149, 149, 0, 0, 0, 0, 1, 1, 0, 1, 1, 0, 1, 0, 1, 0, 1
1010, 1015, '1', 0.04703, 0.28243, 0.03833, 98, 98, 98, 0, 0, 0, 0, 1, 1, 0, 1, 1, 0, 1, 0, 1, 0, 1
1010, 1030, '1', 0.0616, 0.3699, 0.0502, 98, 98, 98, 0, 0, 0, 0, 1, 1, 0, 1, 1, 0, 1, 0, 1, 0, 1
1012, 1087, '1', 0.04934, 0.20469, 0.03473, 149, 149, 149, 0, 0, 0, 0, 1, 1, 0, 1, 1, 0, 1, 0, 1, 0, 1
3051, 1012, '1', 0.0571, 0.24977, 0.03804, 149, 149, 149, 0, 0, 0, 0, 1, 1, 0, 1, 1, 0, 1, 0, 1, 0, 1
1013, 1031, '1', 0.04509, 0.27078, 0.03675, 98, 98, 98, 0, 0, 0, 0, 1, 1, 0, 1, 1, 0, 1, 0, 1, 0, 1
1047, 1013, '1', 0.00947, 0.06117, 0.01167, 221, 221, 221, 0, 0, 0, 0, 1, 1, 0, 1, 1, 0, 1, 0, 1, 0, 1
1086, 1013, '1', 0.079, 0.19311, 0.02529, 98, 98, 98, 0, 0, 0, 0, 1, 1, 0, 1, 1, 0, 1, 0, 1, 0, 1
1014, 1047, '1', 0.03566, 0.14794, 0.0251, 149, 149, 149, 0, 0, 0, 0, 1, 1, 0, 1, 1, 0, 1, 0, 1, 0, 1
1014, 1083, '1', 0.04105, 0.18293, 0.02682, 149, 149, 149, 0, 0, 0, 0, 1, 1, 0, 1, 1, 0, 1, 0, 1, 0, 1
1016, 1034, '1', 0.01828, 0.10976, 0.01489, 98, 98, 98, 0, 0, 0, 0, 1, 1, 0, 1, 1, 0, 1, 0, 1, 0, 1
1068, 1016, '1', 0.02773, 0.15837, 0.0238, 98, 98, 98, 0, 0, 0, 0, 1, 1, 0, 1, 1, 0, 1, 0, 1, 0, 1
1018, 1017, '1', 0.03227, 0.07887, 0.01033, 98, 98, 98, 0, 0, 0, 0, 1, 1, 0, 1, 1, 0, 1, 0, 1, 0, 1
1017, 1029, '1', 0.03244, 0.14188, 0.02161, 149, 149, 149, 0, 0, 0, 0, 1, 1, 0, 1, 1, 0, 1, 0, 1, 0, 1
1037, 1017, '1', 0.00752, 0.03352, 0.00491, 221, 221, 221, 0, 0, 0, 0, 1, 1, 0, 1, 1, 0, 1, 0, 1, 0, 1
1047, 1017, '1', 0.036, 0.156, 0.024, 150, 150, 150, 0, 0, 0, 0, 1, 1, 0, 1, 1, 0, 1, 0, 1, 0, 1
1024, 1018, '1', 0.01094, 0.06572, 0.00892, 98, 98, 98, 0, 0, 0, 0, 1, 1, 0, 1, 1, 0, 1, 0, 1, 0, 1
1019, 1040, '1', 0.04978, 0.20651, 0.03504, 149, 149, 149, 0, 0, 0, 0, 1, 1, 0, 1, 1, 0, 1, 0, 1, 0, 1
1019, 1045, '1', 0.01522, 0.0372, 0.00487, 221, 221, 221, 0, 0, 0, 0, 1, 1, 0, 1, 1, 0, 1, 0, 1, 0, 1
1019, 1071, '1', 0.0044, 0.028, 0.0054, 225, 225, 225, 0, 0, 0, 0, 1, 1, 0, 1, 1, 0, 1, 0, 1, 0, 1
1071, 1019, '2', 0.0044, 0.028, 0.0054, 225, 225, 225, 0, 0, 0, 0, 1, 1, 0, 1, 1, 0, 1, 0, 1, 0, 1
1019, 1084, '1', 0.03, 0.16, 0.025, 220, 220, 220, 0, 0, 0, 0, 1, 1, 0, 1, 1, 0, 1, 0, 1, 0, 1
1025, 1020, '1', 0.00828, 0.03434, 0.00583, 149, 149, 149, 0, 0, 0, 0, 1, 1, 0, 1, 1, 0, 1, 0, 1, 0, 1
1084, 1020, '1', 0.01056, 0.06337, 0.0086, 221, 221, 221, 0, 0, 0, 0, 1, 1, 0, 1, 1, 0, 1, 0, 1, 0, 1
1020, 3059, '1', 0.0189, 0.06, 0.006, 300, 300, 300, 0, 0, 0, 0, 1, 1, 0, 1, 1, 0, 1, 0, 1, 0, 1
1020, 3130, '1', 0.00996, 0.06938, 0.01134, 221, 221, 221, 0, 0, 0, 0, 1, 1, 0, 1, 1, 0, 1, 0, 1, 0, 1
1022, 1028, '1', 0.01433, 0.09253, 0.01765, 221, 221, 221, 0, 0, 0, 0, 1, 1, 0, 1, 1, 0, 1, 0, 1, 0, 1
1022, 1028, '2', 0.01433, 0.09253, 0.01765, 221, 221, 221, 0, 0, 0, 0, 1, 1, 0, 1, 1, 0, 1, 0, 1, 0, 1
1024, 1090, '1', 0.01414, 0.06303, 0.00924, 149, 149, 149, 0, 0, 0, 0, 1, 1, 0, 1, 1, 0, 1, 0, 1, 0, 1
1027, 1045, '1', 0.02505, 0.10957, 0.01669, 221, 221, 221, 0, 0, 0, 0, 1, 1, 0, 1, 1, 0, 1, 0, 1, 0, 1
1056, 1027, '1', 0.03121, 0.0763, 0.00999, 250, 250, 250, 0, 0, 0, 0, 1, 1, 0, 1, 1, 0, 1, 0, 1, 0, 1
1028, 3109, '1', 0.00428, 0.01875, 0.00286, 250, 250, 250, 0, 0, 0, 0, 1, 1, 0, 1, 1, 0, 1, 0, 1, 0, 1
1029, 1056, '1', 0.02054, 0.11733, 0.01763, 221, 221, 221, 0, 0, 0, 0, 1, 1, 0, 1, 1, 0, 1, 0, 1, 0, 1
1030, 1038, '1', 0.07404, 0.42285, 0.06354, 98, 98, 98, 0, 0, 0, 0, 1, 1, 0, 1, 1, 0, 1, 0, 1, 0, 1
1083, 1030, '1', 0.06537, 0.37334, 0.0561, 98, 98, 98, 0, 0, 0, 0, 1, 1, 0, 1, 1, 0, 1, 0, 1, 0, 1
1032, 1036, '1', 0.01956, 0.11746, 0.01594, 98, 98, 98, 0, 0, 0, 0, 1, 1, 0, 1, 1, 0, 1, 0, 1, 0, 1
1038, 1032, '1', 0.045, 0.11, 0.015, 155, 155, 155, 0, 0, 0, 0, 1, 1, 0, 1, 1, 0, 1, 0, 1, 0, 1
1033, 1081, '1', 0.003, 0.031, 0.059, 548, 548, 548, 0, 0, 0, 0, 1, 1, 0, 1, 1, 0, 1, 0, 1, 0, 1
1033, 3050, '1', 0.0139, 0.136, 0.262, 647, 647, 647, 0, 0, 0, 0, 1, 1, 0, 1, 1, 0, 1, 0, 1, 0, 1
1067, 1034, '1', 0.00795, 0.04771, 0.00647, 98, 98, 98, 0, 0, 0, 0, 1, 1, 0, 1, 1, 0, 1, 0, 1, 0, 1
1088, 1036, '1', 0.02065, 0.11793, 0.01772, 98, 98, 98, 0, 0, 0, 0, 1, 1, 0, 1, 1, 0, 1, 0, 1, 0, 1
1037, 1071, '1', 0.00669, 0.04319, 0.00824, 300, 300, 300, 0, 0, 0, 0, 1, 1, 0, 1, 1, 0, 1, 0, 1, 0, 1
1082, 1038, '1', 0.01115, 0.04969, 0.00729, 149, 149, 149, 0, 0, 0, 0, 1, 1, 0, 1, 1, 0, 1, 0, 1, 0, 1
1083, 1038, '1', 0.01, 0.05, 0.007, 221, 221, 221, 0, 0, 0, 0, 1, 1, 0, 1, 1, 0, 1, 0, 1, 0, 1
1040, 1090, '1', 0.02991, 0.13329, 0.01955, 149, 149, 149, 0, 0, 0, 0, 1, 1, 0, 1, 1, 0, 1, 0, 1, 0, 1
1065, 1041, '1', 0.00386, 0.02203, 0.00331, 98, 98, 98, 0, 0, 0, 0, 1, 1, 0, 1, 1, 0, 1, 0, 1, 0, 1
1041, 1067, '1', 0.00393, 0.01722, 0.00262, 149, 149, 149, 0, 0, 0, 0, 1, 1, 0, 1, 1, 0, 1, 0, 1, 0, 1
1044, 3019, '1', 0.03857, 0.17192, 0.02521, 149, 149, 149, 0, 0, 0, 0, 1, 1, 0, 1, 1, 0, 1, 0, 1, 0, 1
3130, 1044, '1', 0.02731, 0.19029, 0.03111, 221, 221, 221, 0, 0, 0, 0, 1, 1, 0, 1, 1, 0, 1, 0, 1, 0, 1
1045, 1064, '1', 0.00545, 0.03794, 0.0062, 221, 221, 221, 0, 0, 0, 0, 1, 1, 0, 1, 1, 0, 1, 0, 1, 0, 1
1087, 1046, '1', 0.03262, 0.14269, 0.02173, 149, 149, 149, 0, 0, 0, 0, 1, 1, 0, 1, 1, 0, 1, 0, 1, 0, 1
1046, 3009, '1', 0.05654, 0.23454, 0.0398, 149, 149, 149, 0, 0, 0, 0, 1, 1, 0, 1, 1, 0, 1, 0, 1, 0, 1
1047, 1085, '1', 0.00947, 0.06117, 0.01167, 221, 221, 221, 0, 0, 0, 0, 1, 1, 0, 1, 1, 0, 1, 0, 1, 0, 1
1053, 1081, '1', 0.003, 0.03, 0.06, 548, 548, 548, 0, 0, 0, 0, 1, 1, 0, 1, 1, 0, 1, 0, 1, 0, 1
1054, 1056, '1', 0.02202, 0.09633, 0.01467, 149, 149, 149, 0, 0, 0, 0, 1, 1, 0, 1, 1, 0, 1, 0, 1, 0, 1
1089, 1054, '1', 0.08737, 0.21357, 0.02796, 98, 98, 98, 0, 0, 0, 0, 1, 1, 0, 1, 1, 0, 1, 0, 1, 0, 1
1055, 1089, '1', 0.04982, 0.12179, 0.01595, 98, 98, 98, 0, 0, 0, 0, 1, 1, 0, 1, 1, 0, 1, 0, 1, 0, 1
1056, 1061, '1', 0.02267, 0.12946, 0.01945, 150, 150, 150, 0, 0, 0, 0, 1, 1, 0, 1, 1, 0, 1, 0, 1, 0, 1
1056, 1065, '1', 0.02269, 0.12962, 0.01948, 250, 250, 250, 0, 0, 0, 0, 1, 1, 0, 1, 1, 0, 1, 0, 1, 0, 1
1069, 1058, '1', 0.0074, 0.05155, 0.00843, 221, 221, 221, 0, 0, 0, 0, 1, 1, 0, 1, 1, 0, 1, 0, 1, 0, 1
1069, 1058, '2', 0.0074, 0.05155, 0.00843, 221, 221, 221, 0, 0, 0, 0, 1, 1, 0, 1, 1, 0, 1, 0, 1, 0, 1
1058, 1087, '1', 0.01573, 0.10956, 0.01791, 221, 221, 221, 0, 0, 0, 0, 1, 1, 0, 1, 1, 0, 1, 0, 1, 0, 1
1058, 1087, '2', 0.01573, 0.10956, 0.01791, 221, 221, 221, 0, 0, 0, 0, 1, 1, 0, 1, 1, 0, 1, 0, 1, 0, 1
1061, 3042, '1', 0.054, 0.18, 0.028, 221, 221, 221, 0, 0, 0, 0, 1, 1, 0, 1, 1, 0, 1, 0, 1, 0, 1
1088, 1068, '1', 0.02962, 0.16921, 0.02543, 98, 98, 98, 0, 0, 0, 0, 1, 1, 0, 1, 1, 0, 1, 0, 1, 0, 1
1082, 1069, '1', 0.02137, 0.0952, 0.01396, 149, 149, 149, 0, 0, 0, 0, 1, 1, 0, 1, 1, 0, 1, 0, 1, 0, 1
3048, 1079, '1', 0.0013, 0.015, 1.02, 2300, 2300, 2300, 0, 0, 0, 0, 1, 1, 0, 1, 1, 0, 1, 0, 1, 0, 1
3048, 1079, '2', 0.0013, 0.015, 1.02, 2300, 2300, 2300, 0, 0, 0, 0, 1, 1, 0, 1, 1, 0, 1, 0, 1, 0, 1
1081, 3058, '1', 0.0091, 0.089, 0.171, 548, 548, 548, 0, 0, 0, 0, 1, 1, 0, 1, 1, 0, 1, 0, 1, 0, 1
1084, 3130, '1', 0.02049, 0.09131, 0.01339, 221, 221, 221, 0, 0, 0, 0, 1, 1, 0, 1, 1, 0, 1, 0, 1, 0, 1
1085, 1086, '1', 0.03392, 0.14838, 0.0226, 149, 149, 149, 0, 0, 0, 0, 1, 1, 0, 1, 1, 0, 1, 0, 1, 0, 1
1090, 1085, '1', 0.02018, 0.13786, 0.02346, 221, 221, 221, 0, 0, 0, 0, 1, 1, 0, 1, 1, 0, 1, 0, 1, 0, 1
2029, 1091, '1', 0.0389, 0.17144, 0.0798, 187, 187, 187, 0, 0, 0, 0, 1, 1, 0, 1, 1, 0, 1, 0, 1, 0, 1
1091, 2048, '1', 0.02193, 0.09667, 0.045, 187, 187, 187, 0, 0, 0, 0, 1, 1, 0, 1, 1, 0, 1, 0, 1, 0, 1
2098, 1091, '1', 0.00554, 0.02443, 0.01137, 187, 187, 187, 0, 0, 0, 0, 1, 1, 0, 1, 1, 0, 1, 0, 1, 0, 1
2022, 2001, '1', 0.00839, 0.03697, 0.01721, 187, 187, 187, 0, 0, 0, 0, 1, 1, 0, 1, 1, 0, 1, 0, 1, 0, 1
2027, 2001, '1', 0.00955, 0.04062, 0.02032, 187, 187, 187, 0, 0, 0, 0, 1, 1, 0, 1, 1, 0, 1, 0, 1, 0, 1
2021, 2002, '1', 0.00097, 0.01175, 0.78032, 2295, 2295, 2295, 0, 0, 0, 0, 1, 1, 0, 1, 1, 0, 1, 0, 1, 0, 1
2002, 2101, '1', 0.00031, 0.0037, 0.24573, 2020, 2020, 2020, 0, 0, 0, 0, 1, 1, 0, 1, 1, 0, 1, 0, 1, 0, 1
2038, 2003, '1', 0.00353, 0.02067, 0.01032, 251, 251, 251, 0, 0, 0, 0, 1, 1, 0, 1, 1, 0, 1, 0, 1, 0, 1
2003, 2047, '1', 0.0013, 0.0099, 0.0052, 310, 310, 310, 0, 0, 0, 0, 1, 1, 0, 1, 1, 0, 1, 0, 1, 0, 1
2007, 2114, '1', 0.00888, 0.05207, 0.026, 251, 251, 251, 0, 0, 0, 0, 1, 1, 0, 1, 1, 0, 1, 0, 1, 0, 1
2007, 2122, '1', 0.00861, 0.03661, 0.01831, 187, 187, 187, 0, 0, 0, 0, 1, 1, 0, 1, 1, 0, 1, 0, 1, 0, 1
2014, 2008, '1', 0.02253, 0.09931, 0.04623, 187, 187, 187, 0, 0, 0, 0, 1, 1, 0, 1, 1, 0, 1, 0, 1, 0, 1
2008, 2052, '1', 0.01877, 0.08271, 0.0385, 187, 187, 187, 0, 0, 0, 0, 1, 1, 0, 1, 1, 0, 1, 0, 1, 0, 1
2009, 2049, '1', 0.01224, 0.07176, 0.03583, 251, 251, 251, 0, 0, 0, 0, 1, 1, 0, 1, 1, 0, 1, 0, 1, 0, 1
2009, 2082, '1', 0.00735, 0.03126, 0.01563, 187, 187, 187, 0, 0, 0, 0, 1, 1, 0, 1, 1, 0, 1, 0, 1, 0, 1
2109, 2009, '1', 0.00725, 0.03084, 0.01542, 250, 250, 250, 0, 0, 0, 0, 1, 1, 0, 1, 1, 0, 1, 0, 1, 0, 1
2061, 2010, '1', 0.02439, 0.10748, 0.05003, 187, 187, 187, 0, 0, 0, 0, 1, 1, 0, 1, 1, 0, 1, 0, 1, 0, 1
2010, 2079, '1', 0.02061, 0.09083, 0.04228, 187, 187, 187, 0, 0, 0, 0, 1, 1, 0, 1, 1, 0, 1, 0, 1, 0, 1
2010, 2091, '1', 0.02461, 0.10467, 0.05235, 187, 187, 187, 0, 0, 0, 0, 1, 1, 0, 1, 1, 0, 1, 0, 1, 0, 1
2127, 2011, '1', 0.00108, 0.01307, 0.86827, 2020, 2020, 2020, 0, 0, 0, 0, 1, 1, 0, 1, 1, 0, 1, 0, 1, 0, 1
2012, 2041, '1', 0.01245, 0.05297, 0.02649, 187, 187, 187, 0, 0, 0, 0, 1, 1, 0, 1, 1, 0, 1, 0, 1, 0, 1
2012, 2052, '1', 0.02008, 0.08851, 0.0412, 187, 187, 187, 0, 0, 0, 0, 1, 1, 0, 1, 1, 0, 1, 0, 1, 0, 1
2093, 2012, '1', 0.01029, 0.04536, 0.02111, 187, 187, 187, 0, 0, 0, 0, 1, 1, 0, 1, 1, 0, 1, 0, 1, 0, 1
...